geometry optimzed in LAMMPS
_audit_creation_date              2020-12-01 
_audit_creation_method            'lammps2cif' 
_symmetry_space_group_name_H-M    'P1' 
_symmetry_Int_Tables_number       1 
_symmetry_cell_setting            triclinic 
loop_ 
_symmetry_equiv_pos_as_xyz 
  x,y,z 
_cell_length_a                    49.60866053 
_cell_length_b                    49.63892998408027 
_cell_length_c                    30.197913617740586 
_cell_angle_alpha                 89.95833709143857 
_cell_angle_beta                  90.13550273669283 
_cell_angle_gamma                 119.81471067119642 
loop_ 
_atom_site_label 
_atom_site_type_symbol 
_atom_site_fract_x 
_atom_site_fract_y 
_atom_site_fract_z 
_atom_site_charge 
O1          O  0.88305764  0.71231863  0.67687123    -0.73800
O2          O  0.79666492  0.67252121  0.64725235    -0.73900
O3          O  0.83057477  0.69054880  0.72425624    -0.73900
O4          O  0.84975007  0.69428449  0.60027755    -0.74000
O5          O  0.84687874  0.64814620  0.60531770    -0.73900
O6          O  0.82792045  0.64444127  0.72875041    -0.73900
O7          O  0.79366025  0.62630877  0.65192197    -0.73900
O8          O  0.88035091  0.66618801  0.68152945    -0.73900
Ni9        Ni  0.84002149  0.69402292  0.66198154     1.25400
Ni10       Ni  0.83697706  0.64458569  0.66703867     1.25400
C11         C  0.89570000  0.69580951  0.68524493     0.88300
C12         C  0.78109973  0.64292120  0.64324523     0.88300
C13         C  0.82776219  0.66756665  0.74728815     0.88300
C14         C  0.85121244  0.67163711  0.58228971     0.88500
O15         O  0.12172083  0.83545883  0.82403990    -0.73800
O16         O  0.20601931  0.88698671  0.86129687    -0.73900
O17         O  0.17545928  0.86997234  0.78141642    -0.73900
O18         O  0.15193887  0.85192277  0.90353659    -0.74000
O19         O  0.15952400  0.81145174  0.90042128    -0.73900
O20         O  0.18304875  0.82958218  0.77862149    -0.73900
O21         O  0.21315307  0.84609847  0.85801977    -0.73900
O22         O  0.12881988  0.79453099  0.82082677    -0.73900
Ni23       Ni  0.16353417  0.86254286  0.84268864     1.25400
Ni24       Ni  0.17135929  0.81895989  0.83932415     1.25400
C25         C  0.11178123  0.80689498  0.81465089     0.88300
C26         C  0.22305655  0.87464114  0.86758388     0.88300
C27         C  0.18202981  0.85199940  0.75914415     0.88300
C28         C  0.15320909  0.82953803  0.92278506     0.88500
O29         O  0.54543603  0.04408789  0.01736040    -0.73800
O30         O  0.45874342  0.00980124  0.99150173    -0.73900
O31         O  0.49446304  0.02796560  0.06650225    -0.73900
O32         O  0.51012300  0.02606119  0.94261542    -0.74000
O33         O  0.50225087  0.97823353  0.94955164    -0.73900
O34         O  0.48761767  0.98022307  0.07390020    -0.73900
O35         O  0.45182952  0.96210666  0.99951992    -0.73900
O36         O  0.53842723  0.99631675  0.02382376    -0.73900
Ni37       Ni  0.50239357  0.02866607  0.00425283     1.25400
Ni38       Ni  0.49479678  0.97754428  0.01201909     1.25400
C39         C  0.55613376  0.02583454  0.02558043     0.88300
C40         C  0.44125325  0.98023577  0.98989971     0.88300
C41         C  0.48932191  0.00470993  0.09074816     0.88300
C42         C  0.50803904  0.00159461  0.92504759     0.88500
O43         O  0.12705460  0.32482334  0.30642126    -0.73800
O44         O  0.21310569  0.37196942  0.33921559    -0.73900
O45         O  0.18057243  0.35159496  0.26073459    -0.73900
O46         O  0.15888105  0.34442944  0.38439106    -0.74000
O47         O  0.16213828  0.30127818  0.38891541    -0.73900
O48         O  0.18223514  0.30770230  0.26533454    -0.73900
O49         O  0.21563091  0.32838684  0.34228863    -0.73900
O50         O  0.12886191  0.28093825  0.31205114    -0.73900
Ni51       Ni  0.16992796  0.34981627  0.32255313     1.25400
Ni52       Ni  0.17235469  0.30307435  0.32730521     1.25400
C53         C  0.11397552  0.29524685  0.30296779     0.88300
C54         C  0.22834479  0.35788202  0.34719230     0.88300
C55         C  0.18326794  0.32980787  0.24207309     0.88300
C56         C  0.15747914  0.32190989  0.40709896     0.88500
O57         O  0.87913460  0.19996728  0.17668590    -0.73800
O58         O  0.79263107  0.15682372  0.14465740    -0.73900
O59         O  0.82553015  0.17213197  0.22228757    -0.73900
O60         O  0.84622012  0.18488966  0.09938657    -0.74000
O61         O  0.84812366  0.14122207  0.09733827    -0.73900
O62         O  0.82447542  0.12692389  0.21958241    -0.73900
O63         O  0.79346974  0.11254709  0.14132863    -0.73900
O64         O  0.87908620  0.15514109  0.17625770    -0.73900
Ni65       Ni  0.83585297  0.18003084  0.16083661     1.25400
Ni66       Ni  0.83632596  0.13240021  0.15848666     1.25400
C67         C  0.89317503  0.18448352  0.18318339     0.88300
C68         C  0.77885648  0.12757753  0.13660260     0.88300
C69         C  0.82216991  0.14770399  0.24169596     0.88300
C70         C  0.85012966  0.16501129  0.07754461     0.88500
O71         O  0.54182786  0.54367248  0.52768796    -0.73800
O72         O  0.45533585  0.49575775  0.49780352    -0.73900
O73         O  0.48919974  0.50998583  0.57482283    -0.73900
O74         O  0.50758079  0.52910183  0.45160518    -0.74000
O75         O  0.51176307  0.48669377  0.44338281    -0.73900
O76         O  0.49468273  0.46827996  0.56702460    -0.73900
O77         O  0.45975028  0.45346398  0.49031844    -0.73900
O78         O  0.54680587  0.50180672  0.51905689    -0.73900
Ni79       Ni  0.49833044  0.52109231  0.51344734     1.25400
Ni80       Ni  0.50341894  0.47604211  0.50481400     1.25400
C81         C  0.55858859  0.53066266  0.52880172     0.88300
C82         C  0.44376937  0.46723737  0.48644288     0.88300
C83         C  0.48992607  0.48659403  0.59148280     0.88300
C84         C  0.51115401  0.51016885  0.42684065     0.88500
O85         O  0.14933302  0.27378415  0.81242817    -0.73800
O86         O  0.10952141  0.32102543  0.84049899    -0.73900
O87         O  0.12060682  0.29792845  0.76506191    -0.73900
O88         O  0.13832311  0.29704035  0.88905405    -0.74000
O89         O  0.18341318  0.34089587  0.88080094    -0.73900
O90         O  0.16573851  0.34183153  0.75700908    -0.73900
O91         O  0.15471081  0.36483566  0.83217015    -0.73900
O92         O  0.19436581  0.31767951  0.80494482    -0.73900
Ni93       Ni  0.12785565  0.29585586  0.82721523     1.25400
Ni94       Ni  0.17615036  0.34282369  0.81852986     1.25400
C95         C  0.17811836  0.28806981  0.80155384     0.88300
C96         C  0.12572694  0.35072298  0.84158358     0.88300
C97         C  0.14071589  0.31964052  0.74042107     0.88300
C98         C  0.16330454  0.31938066  0.90569295     0.88500
O99         O  0.27151075  0.14804544  0.66779988    -0.73800
O100        O  0.31727008  0.10611500  0.64229890    -0.73900
O101        O  0.29543105  0.11964098  0.71713791    -0.73900
O102        O  0.29316027  0.13456428  0.59283210    -0.74000
O103        O  0.33771998  0.17915618  0.59930039    -0.73900
O104        O  0.33967876  0.16452619  0.72358471    -0.73900
O105        O  0.36164637  0.15097608  0.64898566    -0.73900
O106        O  0.31610875  0.19277965  0.67414897    -0.73900
Ni107      Ni  0.29277293  0.12546089  0.65474017     1.25400
Ni108      Ni  0.34036674  0.17340384  0.66166596     1.25400
C109        C  0.28642846  0.17716306  0.67665044     0.88300
C110        C  0.34701829  0.12183410  0.64050601     0.88300
C111        C  0.31723933  0.14025302  0.74123471     0.88300
C112        C  0.31536002  0.15910636  0.57534505     0.88500
O113        O  0.95093949  0.49249583  0.01122159    -0.73800
O114        O  0.99287119  0.44895324  0.97543934    -0.73900
O115        O  0.97492862  0.46197917  0.05422519    -0.73900
O116        O  0.96909396  0.47947955  0.93207203    -0.74000
O117        O  0.01485556  0.52305832  0.93711295    -0.73900
O118        O  0.01987941  0.50625492  0.05989117    -0.73900
O119        O  0.03842786  0.49271681  0.98140009    -0.73900
O120        O  0.99620240  0.53644716  0.01488495    -0.73900
Ni121      Ni  0.97034203  0.46918145  0.99304775     1.25400
Ni122      Ni  0.01897366  0.51615991  0.99857430     1.25400
C123        C  0.96669250  0.52151038  0.02040129     0.88300
C124        C  0.02242674  0.46395961  0.97084258     0.88300
C125        C  0.99754784  0.48200713  0.07779070     0.88300
C126        C  0.99171994  0.50339885  0.91400847     0.88500
O127        O  0.68160419  0.79845763  0.32356055    -0.73800
O128        O  0.63545843  0.83868515  0.35727510    -0.73900
O129        O  0.65450835  0.82558688  0.27932832    -0.73900
O130        O  0.66241850  0.81081906  0.40199104    -0.74000
O131        O  0.70605851  0.85627262  0.40675687    -0.73900
O132        O  0.69865863  0.87095211  0.28321717    -0.73900
O133        O  0.67972135  0.88387538  0.36082510    -0.73900
O134        O  0.72557397  0.84389094  0.32819903    -0.73900
Ni135      Ni  0.65690523  0.81677216  0.34053535     1.25400
Ni136      Ni  0.70405647  0.86531789  0.34502072     1.25400
C137        C  0.71108738  0.81499214  0.31827366     0.88300
C138        C  0.65018591  0.86799922  0.36503378     0.88300
C139        C  0.67589411  0.85008500  0.26069374     0.88300
C140        C  0.68490319  0.83139100  0.42519919     0.88500
O141        O  0.80362559  0.67967869  0.18270503    -0.73800
O142        O  0.83891410  0.62840107  0.15504767    -0.73900
O143        O  0.82842750  0.65188659  0.23095597    -0.73900
O144        O  0.81391456  0.65651087  0.10726392    -0.74000
O145        O  0.86068998  0.69824906  0.10070891    -0.73900
O146        O  0.87519713  0.69417080  0.22491201    -0.73900
O147        O  0.88562725  0.67071900  0.14899327    -0.73900
O148        O  0.85016870  0.72195797  0.17602992    -0.73900
Ni149      Ni  0.81960448  0.65260086  0.16925972     1.25400
Ni150      Ni  0.86960088  0.69777972  0.16253800     1.25400
C151        C  0.82107106  0.70922979  0.18450745     0.88300
C152        C  0.86790225  0.64127298  0.14581079     0.88300
C153        C  0.85372433  0.67289347  0.24853687     0.88300
C154        C  0.83516635  0.67756112  0.08311941     0.88500
O155        O  0.45545822  0.99113271  0.52373434    -0.73800
O156        O  0.50585301  0.95602738  0.48960937    -0.73900
O157        O  0.48740087  0.96877722  0.56790790    -0.73900
O158        O  0.47404401  0.97818333  0.44546059    -0.74000
O159        O  0.51594028  0.02547024  0.44537507    -0.73900
O160        O  0.52910434  0.01597073  0.56860115    -0.73900
O161        O  0.54788314  0.00310922  0.48981958    -0.73900
O162        O  0.49749208  0.03831064  0.52418453    -0.73900
Ni163      Ni  0.47922905  0.97189251  0.50668516     1.25400
Ni164      Ni  0.52413778  0.02240982  0.50697798     1.25400
C165        C  0.46835713  0.02041218  0.53078274     0.88300
C166        C  0.53498701  0.97379786  0.48287729     0.88300
C167        C  0.50960020  0.99123597  0.58906681     0.88300
C168        C  0.49333413  0.00287691  0.42490451     0.88500
O169        O  0.29244323  0.15978314  0.09492345    -0.73800
O170        O  0.30132492  0.17813651  0.21948473    -0.73900
O171        O  0.31670501  0.21234468  0.14316772    -0.73900
O172        O  0.27684475  0.12561161  0.17121371    -0.74000
O173        O  0.32277768  0.12815191  0.17415982    -0.73900
O174        O  0.36241863  0.21405806  0.14122734    -0.73900
O175        O  0.34771743  0.18194507  0.21891386    -0.73900
O176        O  0.33754951  0.16007453  0.09586476    -0.73900
Ni177      Ni  0.29520137  0.16891565  0.15718094     1.25400
Ni178      Ni  0.34424215  0.17115163  0.15744418     1.25400
C179        C  0.31381639  0.15726162  0.07485021     0.88300
C180        C  0.32568458  0.18234957  0.24035283     0.88300
C181        C  0.34604824  0.22728850  0.13623052     0.88300
C182        C  0.29324881  0.11278640  0.17945259     0.88500
O183        O  0.46963844  0.49972484  0.94712239    -0.73800
O184        O  0.48332847  0.52055431  0.07082060    -0.73900
O185        O  0.50230743  0.55287995  0.99310186    -0.73900
O186        O  0.45026851  0.46741209  0.02485526    -0.74000
O187        O  0.49159970  0.46089282  0.02471673    -0.73900
O188        O  0.54348541  0.54616478  0.99158462    -0.73900
O189        O  0.52442170  0.51421714  0.06964899    -0.73900
O190        O  0.51053760  0.49245910  0.94668135    -0.73900
Ni191      Ni  0.47492254  0.51038598  0.00899467     1.25400
Ni192      Ni  0.51897498  0.50322406  0.00814071     1.25400
C193        C  0.48830527  0.49334629  0.92635293     0.88300
C194        C  0.50568640  0.51995581  0.09135400     0.88300
C195        C  0.53128226  0.56341321  0.98586161     0.88300
C196        C  0.46252827  0.45030599  0.03121768     0.88500
O197        O  0.21218963  0.88296509  0.32146243    -0.73800
O198        O  0.16948659  0.79710190  0.35745359    -0.73900
O199        O  0.18351613  0.82792192  0.27839003    -0.73900
O200        O  0.19809056  0.85149024  0.40082327    -0.74000
O201        O  0.15380959  0.85242021  0.40286423    -0.73900
O202        O  0.13931084  0.82874287  0.28058209    -0.73900
O203        O  0.12497027  0.79788216  0.35937503    -0.73900
O204        O  0.16732538  0.88302920  0.32390913    -0.73900
Ni205      Ni  0.19248030  0.83992962  0.33945224     1.25400
Ni206      Ni  0.14483306  0.84055364  0.34182219     1.25400
C207        C  0.19635927  0.89669228  0.31509231     0.88300
C208        C  0.14022034  0.78360878  0.36522056     0.88300
C209        C  0.15935753  0.82510418  0.25862218     0.88300
C210        C  0.17765103  0.85450256  0.42272857     0.88500
O211        O  0.97303215  0.49365099  0.43184583    -0.73800
O212        O  0.97971986  0.51330594  0.55557443    -0.73900
O213        O  0.99806905  0.54684955  0.47921928    -0.73900
O214        O  0.95471906  0.46016135  0.50888621    -0.74000
O215        O  0.99969789  0.46071648  0.51376807    -0.73900
O216        O  0.04295108  0.54673280  0.48078890    -0.73900
O217        O  0.02478596  0.51434475  0.55863677    -0.73900
O218        O  0.01744250  0.49268067  0.43527697    -0.73900
Ni219      Ni  0.97479097  0.50345829  0.49365426     1.25400
Ni220      Ni  0.02282308  0.50363893  0.49710878     1.25400
C221        C  0.99448751  0.49064524  0.41292824     0.88300
C222        C  0.00287145  0.51621004  0.57825249     0.88300
C223        C  0.02763351  0.56092868  0.47445142     0.88300
C224        C  0.97013735  0.44649669  0.51858948     0.88500
O225        O  0.80674294  0.15990491  0.60005216    -0.73800
O226        O  0.82147904  0.17738420  0.72404891    -0.73900
O227        O  0.83412176  0.21208875  0.64886229    -0.73900
O228        O  0.79390072  0.12506479  0.67588442    -0.74000
O229        O  0.83910490  0.12612903  0.66896828    -0.73900
O230        O  0.87972307  0.21360669  0.64449698    -0.73900
O231        O  0.86614054  0.17736166  0.71870605    -0.73900
O232        O  0.85230041  0.16165852  0.59433197    -0.73900
Ni233      Ni  0.81246065  0.16857973  0.66233950     1.25400
Ni234      Ni  0.86095331  0.16979808  0.65628401     1.25400
C235        C  0.82758906  0.15884415  0.57636350     0.88300
C236        C  0.84533051  0.17847226  0.74237522     0.88300
C237        C  0.86340798  0.22703982  0.64144307     0.88300
C238        C  0.81018197  0.11159820  0.67903343     0.88500
O239        O  0.68069111  0.79802263  0.86291183    -0.73800
O240        O  0.72418493  0.88440404  0.83182530    -0.73900
O241        O  0.70348412  0.85147906  0.90913480    -0.73900
O242        O  0.70138733  0.83110027  0.78568172    -0.74000
O243        O  0.65632996  0.83041706  0.77827063    -0.73900
O244        O  0.65854999  0.85078038  0.90133837    -0.73900
O245        O  0.67906583  0.88358731  0.82442499    -0.73900
O246        O  0.63551985  0.79703259  0.85532054    -0.73900
Ni247      Ni  0.70401847  0.84125727  0.84772270     1.25400
Ni248      Ni  0.65574141  0.84035006  0.83963089     1.25400
C249        C  0.65096340  0.78343789  0.86529334     0.88300
C250        C  0.70875130  0.89789746  0.82134115     0.88300
C251        C  0.68101611  0.85386312  0.92592442     0.88300
C252        C  0.67914910  0.82880591  0.76125794     0.88500
C253        C  0.76001072  0.96596526  0.74600692    -0.04900
C254        C  0.75311701  0.98883199  0.76060033     0.09300
C255        C  0.73252844  0.98231708  0.79641357    -0.02300
C256        C  0.71861308  0.95293214  0.81723025    -0.00500
C257        C  0.72526668  0.92983959  0.80239374    -0.04100
C258        C  0.74626582  0.93664895  0.76680815     0.02900
C259        C  0.76798084  0.02002796  0.73855628     0.09700
C260        C  0.72575680  0.00599104  0.81179678     0.35600
C261        C  0.75284676  0.91310155  0.75014366     0.39000
C262        C  0.75183562  0.02657880  0.70567101    -0.04500
C263        C  0.76556278  0.05625315  0.68574985     0.02700
C264        C  0.79597125  0.07950692  0.69778204    -0.04100
C265        C  0.81220453  0.07259863  0.73057749    -0.00300
C266        C  0.79822588  0.04303663  0.75074251    -0.02900
C267        C  0.72106228  0.00257692  0.69219068     0.36400
C268        C  0.84270117  0.09631386  0.74562521     0.40000
C269        C  0.74817476  0.06252929  0.65276966     0.39100
C270        C  0.81478854  0.03630729  0.78468843     0.36000
C271        C  0.78093960  0.97252923  0.70895571     0.36700
C272        C  0.69810346  0.94679344  0.85467820     0.40000
N273        N  0.73371147  0.06704397  0.62680876    -0.38100
N274        N  0.69655946  0.98337578  0.68135734    -0.39700
N275        N  0.86699534  0.11514479  0.75781828    -0.37400
N276        N  0.82792272  0.03082644  0.81173251    -0.39800
N277        N  0.72040746  0.02495255  0.82390397    -0.39600
N278        N  0.68182987  0.94195554  0.88466173    -0.37200
N279        N  0.75813969  0.89436947  0.73681018    -0.38300
N280        N  0.79762780  0.97779940  0.67938224    -0.39900
C281        C  0.88088144  0.29878629  0.57406534    -0.04900
C282        C  0.90732526  0.32212547  0.59599155     0.09300
C283        C  0.91878989  0.31455153  0.63400863    -0.02300
C284        C  0.90442475  0.28354265  0.64923365    -0.00500
C285        C  0.87821933  0.25999250  0.62683932    -0.04100
C286        C  0.86638802  0.26785697  0.58932748     0.02900
C287        C  0.92396026  0.35436137  0.57737094     0.09700
C288        C  0.94535180  0.33878154  0.65743600     0.35600
C289        C  0.84013595  0.24389563  0.56500167     0.39000
C290        C  0.91345867  0.37540497  0.58654268    -0.04500
C291        C  0.92783335  0.40500633  0.56639301     0.02700
C292        C  0.95376910  0.41434939  0.53783067    -0.04100
C293        C  0.96495636  0.39336795  0.53037637    -0.00300
C294        C  0.94961301  0.36335567  0.54917426    -0.02900
C295        C  0.88805279  0.36664361  0.61740433     0.36400
C296        C  0.99241930  0.40232170  0.50377809     0.40000
C297        C  0.91631858  0.42602026  0.57674693     0.39100
C298        C  0.96003475  0.34139559  0.53923296     0.36000
C299        C  0.86897824  0.30663177  0.53516651     0.36700
C300        C  0.91632987  0.27607818  0.68840027     0.40000
N301        N  0.90683376  0.44252566  0.58500464    -0.38100
N302        N  0.86793991  0.35974446  0.64225769    -0.39700
N303        N  0.01467530  0.40924609  0.48346028    -0.37400
N304        N  0.96815371  0.32374639  0.53128491    -0.39800
N305        N  0.96647896  0.35817097  0.67615942    -0.39600
N306        N  0.92601567  0.27041541  0.71975446    -0.37200
N307        N  0.81926498  0.22484484  0.54544656    -0.38300
N308        N  0.85956993  0.31305423  0.50420281    -0.39900
C309        C  0.07913271  0.69836678  0.38039623    -0.04900
C310        C  0.09125082  0.68997726  0.41687751     0.09300
C311        C  0.11919331  0.71251594  0.43688530    -0.02300
C312        C  0.13522645  0.74309615  0.42001896    -0.00500
C313        C  0.12367228  0.75123740  0.38246878    -0.04100
C314        C  0.09538442  0.72874909  0.36299628     0.02900
C315        C  0.07531027  0.65693359  0.43263251     0.09700
C316        C  0.13141075  0.70417761  0.47492487     0.35600
C317        C  0.08335124  0.73654888  0.32419624     0.39000
C318        C  0.07834372  0.63436282  0.40816390    -0.04500
C319        C  0.06281852  0.60304570  0.42185760     0.02700
C320        C  0.04433204  0.59404435  0.46050870    -0.04100
C321        C  0.04153398  0.61669457  0.48526826    -0.00300
C322        C  0.05690945  0.64802166  0.47130513    -0.02900
C323        C  0.09748240  0.64348647  0.36867169     0.36400
C324        C  0.02350046  0.60789111  0.52580130     0.40000
C325        C  0.06499795  0.57993222  0.39510883     0.39100
C326        C  0.05374301  0.67111059  0.49660235     0.36000
C327        C  0.04981140  0.67560888  0.36081472     0.36700
C328        C  0.16292719  0.76647145  0.44250040     0.40000
N329        N  0.06669011  0.56158049  0.37350657    -0.38100
N330        N  0.11274240  0.65092139  0.33717374    -0.39700
N331        N  0.00918263  0.60077533  0.55819596    -0.37400
N332        N  0.05129644  0.68955991  0.51686514    -0.39800
N333        N  0.14104612  0.69751692  0.50539451    -0.39600
N334        N  0.18491270  0.78515720  0.46058445    -0.37200
N335        N  0.07376370  0.74272407  0.29319909    -0.38300
N336        N  0.02638446  0.65742951  0.34530666    -0.39900
C337        C  0.62898507  0.71152599  0.93592088    -0.04900
C338        C  0.60209258  0.68875152  0.91409323     0.09300
C339        C  0.59151741  0.69684788  0.87560165    -0.02300
C340        C  0.60752110  0.72763125  0.85931890    -0.00500
C341        C  0.63433084  0.75063480  0.88141941    -0.04100
C342        C  0.64486084  0.74235316  0.92001566     0.02900
C343        C  0.58424531  0.65650769  0.93281649     0.09700
C344        C  0.56396549  0.67342748  0.85296537     0.35600
C345        C  0.67107428  0.76584739  0.94495202     0.39000
C346        C  0.56431268  0.65050326  0.96932413    -0.04500
C347        C  0.54795546  0.62041686  0.98775636     0.02700
C348        C  0.55058951  0.59573439  0.96892746    -0.04100
C349        C  0.57037714  0.60175613  0.93200877    -0.00300
C350        C  0.58745000  0.63209986  0.91451400    -0.02900
C351        C  0.56037287  0.67535003  0.98756337     0.36400
C352        C  0.57210207  0.57651049  0.91051843     0.40000
C353        C  0.52903842  0.61510933  0.02688718     0.39100
C354        C  0.60825414  0.63824727  0.87744118     0.36000
C355        C  0.64015225  0.70316256  0.97512634     0.36700
C356        C  0.59655283  0.73544829  0.81943425     0.40000
N357        N  0.51405870  0.61086266  0.05822704    -0.38100
N358        N  0.55720516  0.69521014  0.00190576    -0.39700
N359        N  0.57331228  0.55632746  0.89325674    -0.37400
N360        N  0.62487170  0.64315198  0.84788104    -0.39800
N361        N  0.54202594  0.65463773  0.83493325    -0.39600
N362        N  0.58776182  0.74170402  0.78766376    -0.37200
N363        N  0.69184823  0.78457162  0.96505478    -0.38300
N364        N  0.64896809  0.69637563  0.00637234    -0.39900
C365        C  0.23703581  0.03828695  0.24181000    -0.04900
C366        C  0.25080471  0.01968824  0.23525786     0.09300
C367        C  0.27785406  0.03104645  0.20929697    -0.02300
C368        C  0.29156718  0.06110270  0.19067444    -0.00500
C369        C  0.27800402  0.08017540  0.19723669    -0.04100
C370        C  0.25052090  0.06835202  0.22323987     0.02900
C371        C  0.23693729  0.98808227  0.25600264     0.09700
C372        C  0.29156106  0.01155297  0.20168196     0.35600
C373        C  0.23666718  0.08742950  0.23325194     0.39000
C374        C  0.21004606  0.96294335  0.23760540    -0.04500
C375        C  0.19692255  0.93323640  0.25706695     0.02700
C376        C  0.21096419  0.92817844  0.29471699    -0.04100
C377        C  0.23835626  0.95323119  0.31244833    -0.00300
C378        C  0.25094754  0.98318329  0.29363754    -0.02900
C379        C  0.19603397  0.96763106  0.19825097     0.36400
C380        C  0.25324001  0.94846106  0.35062575     0.40000
C381        C  0.16936883  0.90766151  0.23728214     0.39100
C382        C  0.27809022  0.00920084  0.31336878     0.36000
C383        C  0.20906288  0.02653250  0.26834797     0.36700
C384        C  0.31981290  0.07207454  0.16506009     0.40000
N385        N  0.14735904  0.88741049  0.22140961    -0.38100
N386        N  0.18483548  0.97135495  0.16688351    -0.39700
N387        N  0.26534624  0.94481640  0.38097998    -0.37400
N388        N  0.29968800  0.03007327  0.32901901    -0.39800
N389        N  0.30243058  0.99594819  0.19573772    -0.39600
N390        N  0.34254088  0.08068576  0.14512838    -0.37200
N391        N  0.22556815  0.10255529  0.24143728    -0.38300
N392        N  0.18667202  0.01710795  0.28930905    -0.39900
C393        C  0.43623631  0.37642519  0.09819632    -0.04900
C394        C  0.40788776  0.35584554  0.07733844     0.09300
C395        C  0.39658497  0.36658545  0.04264881    -0.02300
C396        C  0.41418213  0.39754884  0.02768035    -0.00500
C397        C  0.44309799  0.41800411  0.04769535    -0.04100
C398        C  0.45353418  0.40750969  0.08398196     0.02900
C399        C  0.39063563  0.32249773  0.09106320     0.09700
C400        C  0.36700366  0.34555464  0.02207367     0.35600
C401        C  0.48141192  0.42896105  0.10805667     0.39000
C402        C  0.36819272  0.31255230  0.12493453    -0.04500
C403        C  0.35364529  0.28152412  0.13999557     0.02700
C404        C  0.36121085  0.26010973  0.12074110    -0.04100
C405        C  0.38290591  0.26999965  0.08553766    -0.00300
C406        C  0.39774607  0.30112410  0.07115809    -0.02900
C407        C  0.36020859  0.33439722  0.14430417     0.36400
C408        C  0.38907560  0.24793349  0.06262627     0.40000
C409        C  0.33159549  0.27202023  0.17617616     0.39100
C410        C  0.42042365  0.31130389  0.03571728     0.36000
C411        C  0.44773990  0.36540041  0.13407926     0.36700
C412        C  0.40289109  0.40800638  0.99087717     0.40000
N413        N  0.31400016  0.26447965  0.20503336    -0.38100
N414        N  0.35377480  0.35184469  0.15952377    -0.39700
N415        N  0.39384330  0.23031899  0.04412339    -0.37400
N416        N  0.43853339  0.31953250  0.00748077    -0.39800
N417        N  0.34334569  0.32872692  0.00581035    -0.39600
N418        N  0.39387510  0.41638716  0.96156357    -0.37200
N419        N  0.50345565  0.44601374  0.12764339    -0.38300
N420        N  0.45691429  0.35649733  0.16254759    -0.39900
C421        C  0.71405785  0.83792565  0.54510928    -0.04900
C422        C  0.68586218  0.82247969  0.56871232     0.09300
C423        C  0.65757259  0.80809897  0.54517054    -0.02300
C424        C  0.65722608  0.81085186  0.49862328    -0.00500
C425        C  0.68548960  0.82684517  0.47447028    -0.04100
C426        C  0.71396591  0.83963795  0.49826109     0.02900
C427        C  0.68548018  0.82433315  0.61842884     0.09700
C428        C  0.62859492  0.79112772  0.56930272     0.35600
C429        C  0.74333906  0.85448729  0.47483684     0.39000
C430        C  0.68073528  0.84734076  0.63832889    -0.04500
C431        C  0.67812334  0.84831562  0.68474667     0.02700
C432        C  0.68085595  0.82658505  0.71210231    -0.04100
C433        C  0.68647435  0.80403266  0.69221861    -0.00300
C434        C  0.68841840  0.80270712  0.64550651    -0.02900
C435        C  0.67874421  0.87025220  0.61073876     0.36400
C436        C  0.68939605  0.78165531  0.71970424     0.40000
C437        C  0.67353448  0.87245400  0.70424936     0.39100
C438        C  0.69307384  0.77890197  0.62516316     0.36000
C439        C  0.74318645  0.85285208  0.56932221     0.36700
C440        C  0.62745794  0.79889219  0.47642630     0.40000
N441        N  0.66981472  0.89174396  0.71948643    -0.38100
N442        N  0.67728299  0.88851077  0.58856468    -0.39700
N443        N  0.69175478  0.76382663  0.74169435    -0.37400
N444        N  0.69675422  0.75987943  0.60887856    -0.39800
N445        N  0.60554301  0.77750097  0.58862508    -0.39600
N446        N  0.60367015  0.78951006  0.45892283    -0.37200
N447        N  0.76682519  0.86631498  0.45624893    -0.38300
N448        N  0.76638191  0.86483497  0.58876502    -0.39900
C449        C  0.65125588  0.84691182  0.04479944    -0.04900
C450        C  0.67923544  0.86289423  0.06884170     0.09300
C451        C  0.70767517  0.87834370  0.04588622    -0.02300
C452        C  0.70825162  0.87680732  0.99912886    -0.00500
C453        C  0.68033035  0.85892769  0.97486795    -0.04100
C454        C  0.65170397  0.84442575  0.99825400     0.02900
C455        C  0.67871716  0.86028871  0.11838732     0.09700
C456        C  0.73643522  0.89512528  0.07067636     0.35600
C457        C  0.62259783  0.82523773  0.97519777     0.39000
C458        C  0.67644901  0.83339806  0.13789017    -0.04500
C459        C  0.67457383  0.82973853  0.18426689     0.02700
C460        C  0.67543390  0.85323464  0.21176500    -0.04100
C461        C  0.67753712  0.88009959  0.19226365    -0.00300
C462        C  0.67927952  0.88366180  0.14567651    -0.02900
C463        C  0.67645625  0.80959316  0.10999353     0.36400
C464        C  0.67661240  0.90342240  0.22009275     0.40000
C465        C  0.67253591  0.80198370  0.20355135     0.39100
C466        C  0.68167102  0.91133368  0.12575529     0.36000
C467        C  0.62192276  0.83215821  0.06842501     0.36700
C468        C  0.73768593  0.89398032  0.97622112     0.40000
N469        N  0.67080371  0.77972786  0.21859903    -0.38100
N470        N  0.67654331  0.79071752  0.08761797    -0.39700
N471        N  0.67558478  0.92181318  0.24246408    -0.37400
N472        N  0.68372550  0.93350800  0.10989791    -0.39800
N473        N  0.75931771  0.90844860  0.09061826    -0.39600
N474        N  0.76120785  0.90778945  0.95805525    -0.37200
N475        N  0.59931210  0.80981758  0.95702915    -0.38300
N476        N  0.59860949  0.82051950  0.08743566    -0.39900
C477        C  0.76228563  0.73653928  0.20151235    -0.04900
C478        C  0.77749345  0.75997615  0.23357025     0.09300
C479        C  0.80829078  0.76914682  0.24591449    -0.02300
C480        C  0.82316837  0.75353400  0.22851238    -0.00500
C481        C  0.80727231  0.72863242  0.19827506    -0.04100
C482        C  0.77704237  0.72088632  0.18391732     0.02900
C483        C  0.76061096  0.77425993  0.25556962     0.09700
C484        C  0.82443924  0.79439167  0.27720644     0.35600
C485        C  0.76110231  0.69699814  0.15065286     0.39000
C486        C  0.74141067  0.75954441  0.29245224    -0.04500
C487        C  0.72505900  0.77265191  0.31299998     0.02700
C488        C  0.72857056  0.80110633  0.29759123    -0.04100
C489        C  0.74796768  0.81584543  0.26059395    -0.00300
C490        C  0.76362148  0.80225195  0.23945809    -0.02900
C491        C  0.73865779  0.73090733  0.30928787     0.36400
C492        C  0.75088354  0.84436106  0.24283207     0.40000
C493        C  0.70500386  0.75704953  0.35039346     0.39100
C494        C  0.78242449  0.81671074  0.20052724     0.36000
C495        C  0.73133705  0.72855109  0.18676146     0.36700
C496        C  0.85418244  0.76215877  0.24381253     0.40000
N497        N  0.68888047  0.74452074  0.38010176    -0.38100
N498        N  0.73662636  0.70811189  0.32263977    -0.39700
N499        N  0.75331437  0.86708446  0.22845224    -0.37400
N500        N  0.79731405  0.82811675  0.16934788    -0.39800
N501        N  0.83731423  0.81465073  0.30198438    -0.39600
N502        N  0.87892156  0.76910454  0.25608580    -0.37200
N503        N  0.74839763  0.67791861  0.12415626    -0.38300
N504        N  0.70670912  0.72234167  0.17491886    -0.39900
C505        C  0.56447268  0.91701091  0.46293957    -0.04900
C506        C  0.58499223  0.93108922  0.42716101     0.09300
C507        C  0.59010301  0.95983373  0.41066236    -0.02300
C508        C  0.57448954  0.97431593  0.42956586    -0.00500
C509        C  0.55358020  0.96005500  0.46526270    -0.04100
C510        C  0.54894043  0.93142552  0.48203934     0.02900
C511        C  0.60253250  0.91623740  0.40890921     0.09700
C512        C  0.61145031  0.97443219  0.37414245     0.35600
C513        C  0.52892836  0.91715984  0.51998399     0.39000
C514        C  0.59066068  0.89544855  0.37283357    -0.04500
C515        C  0.60591428  0.87934143  0.35856478     0.02700
C516        C  0.63329772  0.88412916  0.38020602    -0.04100
C517        C  0.64525879  0.90531466  0.41607125    -0.00300
C518        C  0.63013599  0.92151989  0.42989544    -0.02900
C519        C  0.56288619  0.89091703  0.35022902     0.36400
C520        C  0.67243069  0.90954515  0.44024457     0.40000
C521        C  0.59376392  0.85840115  0.32103235     0.39100
C522        C  0.64292804  0.94373561  0.46593669     0.36000
C523        C  0.55956281  0.88764511  0.48029111     0.36700
C524        C  0.57930941  0.00339727  0.41117263     0.40000
N525        N  0.58406328  0.84165290  0.29112501    -0.38100
N526        N  0.54083816  0.88749527  0.33203838    -0.39700
N527        N  0.69402313  0.91284665  0.45963303    -0.37400
N528        N  0.65312236  0.96160599  0.49448967    -0.39800
N529        N  0.62847575  0.98604694  0.34498814    -0.39600
N530        N  0.58324236  0.02662790  0.39650779    -0.37200
N531        N  0.51302479  0.90583839  0.55032058    -0.38300
N532        N  0.55577045  0.86424116  0.49401354    -0.39900
C533        C  0.02758348  0.52265693  0.70079052    -0.04900
C534        C  0.00104054  0.51921006  0.72266368     0.09300
C535        C  0.97627815  0.51756539  0.69778710    -0.02300
C536        C  0.97734444  0.51812588  0.65101645    -0.00500
C537        C  0.00342912  0.52002829  0.62811628    -0.04100
C538        C  0.02898941  0.52320603  0.65401741     0.02900
C539        C  0.99829540  0.51534652  0.77198831     0.09700
C540        C  0.94906781  0.51426018  0.72066477     0.35600
C541        C  0.05691477  0.52658554  0.63344001     0.39000
C542        C  0.00332554  0.54034404  0.79965812    -0.04500
C543        C  0.00032383  0.53633442  0.84606346     0.02700
C544        C  0.99233240  0.50726702  0.86510175    -0.04100
C545        C  0.98743375  0.48229095  0.83720245    -0.00300
C546        C  0.99030638  0.48633227  0.79090723    -0.02900
C547        C  0.01196199  0.57029051  0.78027644     0.36400
C548        C  0.98101129  0.45276696  0.85604741     0.40000
C549        C  0.00502731  0.56202225  0.87413956     0.39100
C550        C  0.98549915  0.46069371  0.76257172     0.36000
C551        C  0.05326898  0.52483525  0.72678855     0.36700
C552        C  0.95083322  0.51598313  0.62739894     0.40000
N553        N  0.00876693  0.58249151  0.89659291    -0.38100
N554        N  0.01886349  0.59417739  0.76475005    -0.39700
N555        N  0.97600320  0.42922209  0.87089126    -0.37400
N556        N  0.98184763  0.44034249  0.73992703    -0.39800
N557        N  0.92744905  0.51163989  0.73904672    -0.39600
N558        N  0.92948390  0.51420239  0.60906949    -0.37200
N559        N  0.07926107  0.52916909  0.61743494    -0.38300
N560        N  0.07361218  0.52639302  0.74761555    -0.39900
C561        C  0.02365004  0.48808892  0.19842714    -0.04900
C562        C  0.99550915  0.47875679  0.22105560     0.09300
C563        C  0.96777239  0.46826642  0.19673395    -0.02300
C564        C  0.96828149  0.46833624  0.15003188    -0.00500
C565        C  0.99662167  0.47835872  0.12699544    -0.04100
C566        C  0.02419518  0.48758533  0.15163895     0.02900
C567        C  0.99520006  0.48151551  0.27049409     0.09700
C568        C  0.93872552  0.45826145  0.21995049     0.35600
C569        C  0.05318071  0.49639800  0.12903303     0.39000
C570        C  0.99300267  0.50627197  0.28965586    -0.04500
C571        C  0.99157533  0.50848607  0.33607755     0.02700
C572        C  0.99364261  0.48662937  0.36395390    -0.04100
C573        C  0.99616362  0.46202370  0.34465512    -0.00300
C574        C  0.99653656  0.45926952  0.29810227    -0.02900
C575        C  0.99286769  0.52987559  0.26141536     0.36400
C576        C  0.99727563  0.43882410  0.37244527     0.40000
C577        C  0.98882340  0.53387151  0.35504013     0.39100
C578        C  0.99807386  0.43341111  0.27844518     0.36000
C579        C  0.05223173  0.49915851  0.22344008     0.36700
C580        C  0.93974660  0.45986949  0.12605001     0.40000
N581        N  0.98651713  0.55408301  0.37002744    -0.38100
N582        N  0.99291655  0.54871640  0.23876486    -0.39700
N583        N  0.99803454  0.41993173  0.39395392    -0.37400
N584        N  0.99930876  0.41281300  0.26266596    -0.39800
N585        N  0.91558206  0.45040453  0.23843258    -0.39600
N586        N  0.91699580  0.45318979  0.10699822    -0.37200
N587        N  0.07633311  0.50338710  0.11109096    -0.38300
N588        N  0.07497073  0.50803536  0.24357550    -0.39900
C589        C  0.89016647  0.57822946  0.13518197    -0.04900
C590        C  0.90598555  0.58620158  0.09430480     0.09300
C591        C  0.90877106  0.61177062  0.07015382    -0.02300
C592        C  0.89632456  0.62970286  0.08713039    -0.00500
C593        C  0.88092068  0.62214116  0.12850651    -0.04100
C594        C  0.87748875  0.59604855  0.15216960     0.02900
C595        C  0.92083061  0.56845248  0.07707527     0.09700
C596        C  0.92452873  0.61959602  0.02770834     0.35600
C597        C  0.86168921  0.58804564  0.19452267     0.39000
C598        C  0.90434027  0.54297798  0.04848405    -0.04500
C599        C  0.91931556  0.52805207  0.02904709     0.02700
C600        C  0.95079773  0.53781294  0.03948275    -0.04100
C601        C  0.96667628  0.56251664  0.07021350    -0.00300
C602        C  0.95189255  0.57804222  0.08810519    -0.02900
C603        C  0.87176667  0.53199075  0.03947513     0.36400
C604        C  0.99781729  0.57138927  0.08528897     0.40000
C605        C  0.90224747  0.50315253  0.99757595     0.39100
C606        C  0.96857010  0.60389680  0.11834343     0.36000
C607        C  0.88727767  0.55184377  0.15981930     0.36700
C608        C  0.89858529  0.65537585  0.06115871     0.40000
N609        N  0.88853729  0.48328414  0.97251360    -0.38100
N610        N  0.84569740  0.52305908  0.03273377    -0.39700
N611        N  0.02259295  0.57846568  0.09755275    -0.37400
N612        N  0.98179324  0.62450941  0.14246414    -0.39800
N613        N  0.93706427  0.62577169  0.99384636    -0.39600
N614        N  0.90044990  0.67577452  0.04022563    -0.37200
N615        N  0.84906403  0.58167423  0.22831637    -0.38300
N616        N  0.88506839  0.53076662  0.17933388    -0.39900
C617        C  0.28578684  0.12715566  0.85939772    -0.04900
C618        C  0.31349845  0.14045698  0.88428581     0.09300
C619        C  0.34210225  0.15056123  0.86264919    -0.02300
C620        C  0.34313288  0.14845180  0.81610403    -0.00500
C621        C  0.31560925  0.13723714  0.79057491    -0.04100
C622        C  0.28676159  0.12595875  0.81275857     0.02900
C623        C  0.31255186  0.14426690  0.93337559     0.09700
C624        C  0.37055234  0.16354974  0.88841198     0.35600
C625        C  0.25804360  0.11451456  0.78791790     0.39000
C626        C  0.31163598  0.12154923  0.96235927    -0.04500
C627        C  0.31135242  0.12544290  0.00861914     0.02700
C628        C  0.31172525  0.15197821  0.02623463    -0.04100
C629        C  0.31166326  0.17428229  0.99711221    -0.00300
C630        C  0.31230304  0.17052463  0.95083240    -0.02900
C631        C  0.31079854  0.09405901  0.94439314     0.36400
C632        C  0.31174995  0.20153253  0.01467390     0.40000
C633        C  0.30962136  0.10157709  0.03804480     0.39100
C634        C  0.31308821  0.19384487  0.92102549     0.36000
C635        C  0.25621753  0.11495798  0.88200655     0.36700
C636        C  0.37251834  0.15725752  0.79468724     0.40000
N637        N  0.30794053  0.08225124  0.06123872    -0.38100
N638        N  0.31005993  0.07212117  0.92992557    -0.39700
N639        N  0.31172224  0.22325990  0.02849938    -0.37400
N640        N  0.31373830  0.21241813  0.89716852    -0.39800
N641        N  0.39321799  0.17394299  0.90905214    -0.39600
N642        N  0.39591558  0.16408176  0.77761002    -0.37200
N643        N  0.23508288  0.10538449  0.76824144    -0.38300
N644        N  0.23266140  0.10505704  0.90015828    -0.39900
C645        C  0.32977476  0.19966290  0.46311973    -0.04900
C646        C  0.32104405  0.17468445  0.43355260     0.09300
C647        C  0.30921329  0.14434738  0.45036430    -0.02300
C648        C  0.30674670  0.13906011  0.49653023    -0.00500
C649        C  0.31578955  0.16415808  0.52645771    -0.04100
C650        C  0.32670014  0.19441099  0.50926194     0.02900
C651        C  0.32424402  0.18021967  0.38449071     0.09700
C652        C  0.29986179  0.11855949  0.41992663     0.35600
C653        C  0.33383072  0.22013375  0.53885624     0.39000
C654        C  0.34911192  0.18063949  0.36155788    -0.04500
C655        C  0.35097525  0.18348885  0.31492953     0.02700
C656        C  0.32745250  0.18555660  0.29028813    -0.04100
C657        C  0.30401821  0.18787741  0.31440786    -0.00300
C658        C  0.30224563  0.18469702  0.36099116    -0.02900
C659        C  0.37265622  0.17763864  0.38622797     0.36400
C660        C  0.28168634  0.19397758  0.29203798     0.40000
C661        C  0.37734251  0.18410547  0.29319348     0.39100
C662        C  0.27726602  0.18539128  0.38495504     0.36000
C663        C  0.34232321  0.23091232  0.44590943     0.36700
C664        C  0.29581332  0.10781982  0.51288128     0.40000
N665        N  0.39856820  0.18473726  0.27628728    -0.38100
N666        N  0.39134071  0.17516864  0.40596243    -0.39700
N667        N  0.26384168  0.19895007  0.27450038    -0.37400
N668        N  0.25743204  0.18599273  0.40420915    -0.39800
N669        N  0.29250307  0.09806626  0.39557034    -0.39600
N670        N  0.28700352  0.08285216  0.52576568    -0.37200
N671        N  0.33935693  0.24061221  0.56245663    -0.38300
N672        N  0.35237217  0.25582113  0.43207452    -0.39900
C673        C  0.40389459  0.10493014  0.57861371    -0.04900
C674        C  0.39762293  0.07640784  0.59753093     0.09300
C675        C  0.37520593  0.06305765  0.63137892    -0.02300
C676        C  0.35902115  0.07809402  0.64613421    -0.00500
C677        C  0.36485795  0.10641625  0.62664728    -0.04100
C678        C  0.38747272  0.11978360  0.59281696     0.02900
C679        C  0.41482281  0.06056323  0.58159848     0.09700
C680        C  0.36879893  0.03376007  0.65087267     0.35600
C681        C  0.39316507  0.14831421  0.57134152     0.39000
C682        C  0.44136601  0.06458631  0.60458519    -0.04500
C683        C  0.45858746  0.05111078  0.58822545     0.02700
C684        C  0.44955805  0.03376177  0.54840818    -0.04100
C685        C  0.42244445  0.02898029  0.52613968    -0.00300
C686        C  0.40514931  0.04235115  0.54270870    -0.02900
C687        C  0.45096576  0.08270966  0.64508045     0.36400
C688        C  0.41279235  0.01099981  0.48553060     0.40000
C689        C  0.48498681  0.05421382  0.61330700     0.39100
C690        C  0.37740051  0.03753066  0.51971081     0.36000
C691        C  0.42728550  0.11893591  0.54430611     0.36700
C692        C  0.33715566  0.06493494  0.68241278     0.40000
N693        N  0.50591761  0.05659079  0.63350984    -0.38100
N694        N  0.45854991  0.09711204  0.67743923    -0.39700
N695        N  0.40513199  0.99662354  0.45314966    -0.37400
N696        N  0.35522163  0.03371529  0.50149271    -0.39800
N697        N  0.36374705  0.01036862  0.66632789    -0.39600
N698        N  0.31984049  0.05454322  0.71153265    -0.37200
N699        N  0.39768604  0.17104060  0.55417692    -0.38300
N700        N  0.44596602  0.13006287  0.51697017    -0.39900
C701        C  0.11145509  0.40880067  0.90430800    -0.04900
C702        C  0.08200075  0.40172778  0.88811246     0.09300
C703        C  0.06758985  0.37921698  0.85458847    -0.02300
C704        C  0.08208966  0.36288681  0.83849647    -0.00500
C705        C  0.11112320  0.36909331  0.85594648    -0.04100
C706        C  0.12590228  0.39242330  0.88859849     0.02900
C707        C  0.06571182  0.41719709  0.90811309     0.09700
C708        C  0.03786019  0.37298400  0.83674371     0.35600
C709        C  0.15530565  0.39863984  0.90781022     0.39000
C710        C  0.07175211  0.44644849  0.89262318    -0.04500
C711        C  0.05776132  0.46182572  0.91336897     0.02700
C712        C  0.03804084  0.44820376  0.95035141    -0.04100
C713        C  0.03174088  0.41867910  0.96541132    -0.00300
C714        C  0.04541013  0.40316332  0.94414503    -0.02900
C715        C  0.09229642  0.46059666  0.85514946     0.36400
C716        C  0.01183577  0.40457301  0.00348769     0.40000
C717        C  0.06264278  0.49101190  0.89524007     0.39100
C718        C  0.03873596  0.37272902  0.95933925     0.36000
C719        C  0.12669375  0.43276366  0.93768089     0.36700
C720        C  0.06739045  0.34017239  0.80343673     0.40000
N721        N  0.06649053  0.51418283  0.88046942    -0.38100
N722        N  0.10870717  0.47187646  0.82528015    -0.39700
N723        N  0.99599532  0.39335156  0.03391376    -0.37400
N724        N  0.03338918  0.34838653  0.97117170    -0.39800
N725        N  0.01419208  0.36815923  0.82249032    -0.39600
N726        N  0.05566663  0.32209080  0.77541159    -0.37200
N727        N  0.17871597  0.40355663  0.92317695    -0.38300
N728        N  0.13884798  0.45199623  0.96412704    -0.39900
C729        C  0.19658560  0.22330751  0.77555727    -0.04900
C730        C  0.21958348  0.23751209  0.74267817     0.09300
C731        C  0.22818154  0.26767613  0.72812645    -0.02300
C732        C  0.21429623  0.28384781  0.74681904    -0.00500
C733        C  0.19250805  0.27049419  0.78190159    -0.04100
C734        C  0.18350307  0.23985444  0.79574198     0.02900
C735        C  0.23631392  0.22154728  0.72536929     0.09700
C736        C  0.25147442  0.28210511  0.69376204     0.35600
C737        C  0.16144758  0.22545510  0.83153223     0.39000
C738        C  0.22773151  0.20546397  0.68460896    -0.04500
C739        C  0.24444896  0.19144021  0.66800772     0.02700
C740        C  0.26935661  0.19280643  0.69264106    -0.04100
C741        C  0.27770254  0.20873259  0.73365213    -0.00300
C742        C  0.26152965  0.22338951  0.74955743    -0.02900
C743        C  0.20173522  0.20346370  0.65982297     0.36400
C744        C  0.30236860  0.20932589  0.76035539     0.40000
C745        C  0.23688783  0.17674417  0.62479352     0.39100
C746        C  0.27100963  0.24071722  0.79077020     0.36000
C747        C  0.18626228  0.19145773  0.78825369     0.36700
C748        C  0.22163881  0.31371595  0.72822647     0.40000
N749        N  0.23111898  0.16525647  0.59013720    -0.38100
N750        N  0.18092912  0.20185015  0.64015901    -0.39700
N751        N  0.32195761  0.20983044  0.78185825    -0.37400
N752        N  0.27859661  0.25467242  0.82351420    -0.39800
N753        N  0.27004271  0.29358572  0.66635378    -0.39600
N754        N  0.22741991  0.33744318  0.71318201    -0.37200
N755        N  0.14389257  0.21388165  0.86013017    -0.38300
N756        N  0.17788824  0.16593740  0.79791814    -0.39900
C757        C  0.45801154  0.47526829  0.70896967    -0.04900
C758        C  0.48391734  0.47962577  0.73424091     0.09300
C759        C  0.51078691  0.48367550  0.71220495    -0.02300
C760        C  0.51208762  0.48434489  0.66543781    -0.00500
C761        C  0.48680693  0.48174090  0.64026757    -0.04100
C762        C  0.45960321  0.47673590  0.66222024     0.02900
C763        C  0.48373179  0.48221708  0.78390078     0.09700
C764        C  0.53757123  0.48829451  0.73773740     0.35600
C765        C  0.43316193  0.47290051  0.63659086     0.39000
C766        C  0.48217312  0.45844917  0.81148124    -0.04500
C767        C  0.48348387  0.46187694  0.85808682     0.02700
C768        C  0.48528296  0.48863281  0.87752351    -0.04100
C769        C  0.48611721  0.51205629  0.84991725    -0.00300
C770        C  0.48588694  0.50909242  0.80342037    -0.02900
C771        C  0.47920847  0.43045571  0.79183302     0.36400
C772        C  0.48854362  0.53994645  0.86927317     0.40000
C773        C  0.48255975  0.43766932  0.88608189     0.39100
C774        C  0.48880965  0.53421290  0.77551465     0.36000
C775        C  0.42982677  0.46965887  0.73125745     0.36700
C776        C  0.54008022  0.48912578  0.64334326     0.40000
N777        N  0.48191490  0.41843319  0.90849684    -0.38100
N778        N  0.47688357  0.40813356  0.77613235    -0.39700
N779        N  0.49040052  0.56215288  0.88467698    -0.37400
N780        N  0.49119320  0.55425240  0.75322094    -0.39800
N781        N  0.55889337  0.49191475  0.75815668    -0.39600
N782        N  0.56243777  0.49285470  0.62592548    -0.37200
N783        N  0.41209150  0.46981040  0.61602810    -0.38300
N784        N  0.40739068  0.46521877  0.74918415    -0.39900
C785        C  0.48769570  0.52691418  0.21381578    -0.04900
C786        C  0.51202497  0.52549494  0.23569543     0.09300
C787        C  0.53563584  0.52492922  0.21081885    -0.02300
C788        C  0.53432150  0.52422931  0.16408015    -0.00500
C789        C  0.50916327  0.52441597  0.14115320    -0.04100
C790        C  0.48627691  0.52668949  0.16700796     0.02900
C791        C  0.51160611  0.52204162  0.28503742     0.09700
C792        C  0.56097115  0.52406951  0.23376238     0.35600
C793        C  0.46050949  0.52802173  0.14640592     0.39000
C794        C  0.49299755  0.49254497  0.30420478    -0.04500
C795        C  0.49271331  0.48878939  0.35048684     0.02700
C796        C  0.51236948  0.51425284  0.37794268    -0.04100
C797        C  0.53139555  0.54370820  0.35857311    -0.00300
C798        C  0.53052269  0.54769071  0.31235622    -0.02900
C799        C  0.47428825  0.46593630  0.27605111     0.36400
C800        C  0.55259883  0.56970150  0.38596625     0.40000
C801        C  0.47094509  0.45896582  0.36975391     0.39100
C802        C  0.54899392  0.57817479  0.29277844     0.36000
C803        C  0.46354847  0.52776814  0.23985893     0.36700
C804        C  0.55883986  0.52239562  0.14055882     0.40000
N805        N  0.45332596  0.43519348  0.38484632    -0.38100
N806        N  0.45954860  0.44475259  0.25347187    -0.39700
N807        N  0.56966258  0.59034449  0.40786006    -0.37400
N808        N  0.56360726  0.60251747  0.27711291    -0.39800
N809        N  0.58112234  0.52347060  0.25226590    -0.39600
N810        N  0.57837989  0.52059800  0.12231459    -0.37200
N811        N  0.43982292  0.52907839  0.13041156    -0.38300
N812        N  0.44426919  0.52828743  0.26071634    -0.39900
C813        C  0.84772261  0.14585505  0.95405472    -0.04900
C814        C  0.85385183  0.17413882  0.93461640     0.09300
C815        C  0.86224161  0.20026432  0.96153951    -0.02300
C816        C  0.86375470  0.19801420  0.00793760    -0.00500
C817        C  0.85511468  0.16894189  0.02828335    -0.04100
C818        C  0.84843809  0.14316599  0.00052019     0.02900
C819        C  0.85178926  0.17643749  0.88546354     0.09700
C820        C  0.86857486  0.22939043  0.94135489     0.35600
C821        C  0.84216586  0.11360491  0.01891207     0.39000
C822        C  0.82254247  0.16328045  0.86460036    -0.04500
C823        C  0.82044515  0.16402545  0.81810390     0.02700
C824        C  0.84781365  0.17899999  0.79184343    -0.04100
C825        C  0.87719604  0.19216618  0.81326833    -0.00300
C826        C  0.87904889  0.19082328  0.85978353    -0.02900
C827        C  0.79446939  0.14839371  0.89115600     0.36400
C828        C  0.90579449  0.20663164  0.78795912     0.40000
C829        C  0.78991230  0.14735413  0.79766398     0.39100
C830        C  0.90910769  0.20379056  0.88144808     0.36000
C831        C  0.84001587  0.11922643  0.92596195     0.36700
C832        C  0.87514659  0.22612023  0.03414206     0.40000
N833        N  0.76555397  0.13385432  0.78149594    -0.38100
N834        N  0.77209048  0.13643301  0.91228362    -0.39700
N835        N  0.92881570  0.21781732  0.76824156    -0.37400
N836        N  0.93300174  0.21414709  0.89892186    -0.39800
N837        N  0.87350991  0.25254103  0.92517271    -0.39600
N838        N  0.88442239  0.24866077  0.05478397    -0.37200
N839        N  0.83750168  0.09000545  0.03309948    -0.38300
N840        N  0.83368795  0.09801412  0.90347862    -0.39900
C841        C  0.80298407  0.16006957  0.36013497    -0.04900
C842        C  0.81429708  0.14367141  0.38476796     0.09300
C843        C  0.82526212  0.12606725  0.36265628    -0.02300
C844        C  0.82739356  0.12685511  0.31606963    -0.00500
C845        C  0.81706585  0.14424085  0.29079845    -0.04100
C846        C  0.80390006  0.16005006  0.31345113     0.02900
C847        C  0.81733777  0.14725157  0.43399490     0.09700
C848        C  0.83510422  0.10767196  0.38820213     0.35600
C849        C  0.79156614  0.17685324  0.28935937     0.39000
C850        C  0.79103853  0.13198819  0.46141595    -0.04500
C851        C  0.79403748  0.13634433  0.50773581     0.02700
C852        C  0.82369752  0.15519397  0.52722514    -0.04100
C853        C  0.84989855  0.17121025  0.49918653    -0.00300
C854        C  0.84669176  0.16707118  0.45292495    -0.02900
C855        C  0.76083242  0.11172619  0.44178266     0.36400
C856        C  0.87995798  0.19360174  0.51734958     0.40000
C857        C  0.76627982  0.12180856  0.53472788     0.39100
C858        C  0.87361442  0.18360910  0.42447099     0.36000
C859        C  0.79114369  0.17773489  0.38307039     0.36700
C860        C  0.84224266  0.11132989  0.29503323     0.40000
N861        N  0.74375117  0.11063792  0.55553297    -0.38100
N862        N  0.73675407  0.09561935  0.42607606    -0.39700
N863        N  0.90390812  0.21165003  0.53161930    -0.37400
N864        N  0.89498532  0.19663162  0.40161234    -0.39800
N865        N  0.84284560  0.09292835  0.40856874    -0.39600
N866        N  0.85428360  0.09907736  0.27846930    -0.37200
N867        N  0.78186236  0.19062878  0.27080981    -0.38300
N868        N  0.78162917  0.19170823  0.40145399    -0.39900
C869        C  0.13032723  0.29139862  0.62107208    -0.04900
C870        C  0.13706089  0.31861954  0.59752874     0.09300
C871        C  0.14121273  0.34501208  0.62102062    -0.02300
C872        C  0.14068783  0.34484229  0.66784461    -0.00500
C873        C  0.13608937  0.31829420  0.69151434    -0.04100
C874        C  0.12983470  0.29118441  0.66781883     0.02900
C875        C  0.14212748  0.32001028  0.54834303     0.09700
C876        C  0.14672944  0.37257252  0.59696101     0.35600
C877        C  0.12449133  0.26345968  0.69136473     0.39000
C878        C  0.11899164  0.31738791  0.51845816    -0.04500
C879        C  0.12389755  0.31801007  0.47222199     0.02700
C880        C  0.15159797  0.32033092  0.45560875    -0.04100
C881        C  0.17419256  0.32176290  0.48564132    -0.00300
C882        C  0.16994114  0.32270489  0.53167279    -0.02900
C883        C  0.09002479  0.31368640  0.53540063     0.36400
C884        C  0.20194575  0.32229345  0.46932927     0.40000
C885        C  0.09983204  0.31477508  0.44173827     0.39100
C886        C  0.19447661  0.32699295  0.56207347     0.36000
C887        C  0.12476715  0.26380695  0.59699778     0.36700
C888        C  0.14449063  0.37186168  0.69173067     0.40000
N889        N  0.08055325  0.31199713  0.41740084    -0.38100
N890        N  0.06692957  0.31073504  0.54905111    -0.39700
N891        N  0.22398373  0.32241671  0.45654872    -0.37400
N892        N  0.21408675  0.33065771  0.58638780    -0.39800
N893        N  0.15095141  0.39448704  0.57768128    -0.39600
N894        N  0.14732453  0.39330504  0.71089894    -0.37200
N895        N  0.12015632  0.24130177  0.71007290    -0.38300
N896        N  0.12041027  0.24186626  0.57768676    -0.39900
C897        C  0.20031404  0.35532640  0.12032400    -0.04900
C898        C  0.18228113  0.32683108  0.09794389     0.09300
C899        C  0.16679611  0.29920015  0.12286344    -0.02300
C900        C  0.16812160  0.30007308  0.16964248    -0.00500
C901        C  0.18519535  0.32877874  0.19245287    -0.04100
C902        C  0.20181074  0.35633026  0.16724096     0.02900
C903        C  0.17803567  0.32582416  0.04832124     0.09700
C904        C  0.14874597  0.26973870  0.10016082     0.35600
C905        C  0.22081088  0.38578321  0.18942464     0.39000
C906        C  0.20180067  0.32894474  0.01944068    -0.04500
C907        C  0.19718230  0.32704523  0.97295253     0.02700
C908        C  0.16839337  0.32114881  0.95480713    -0.04100
C909        C  0.14471102  0.31827649  0.98386122    -0.00300
C910        C  0.14960513  0.32080471  0.03020053    -0.02900
C911        C  0.23089477  0.33365747  0.03768519     0.36400
C912        C  0.11561652  0.31399450  0.96612697     0.40000
C913        C  0.22194281  0.33056936  0.94385577     0.39100
C914        C  0.12537923  0.31849493  0.05947660     0.36000
C915        C  0.21689486  0.38375777  0.09496379     0.36700
C916        C  0.15037147  0.27129102  0.19398781     0.40000
N917        N  0.24173716  0.33352192  0.92058695    -0.38100
N918        N  0.25411431  0.33743729  0.05228818    -0.39700
N919        N  0.09241150  0.31064226  0.95209844    -0.37400
N920        N  0.10611396  0.31661631  0.08296060    -0.39800
N921        N  0.13422716  0.24627964  0.08204230    -0.39600
N922        N  0.13622903  0.24829068  0.21328471    -0.37200
N923        N  0.23600818  0.40929284  0.20710967    -0.38300
N924        N  0.23023621  0.40639980  0.07463647    -0.39900
C925        C  0.04312919  0.26919848  0.22871516    -0.04900
C926        C  0.01965371  0.24487702  0.25373725     0.09300
C927        C  0.02717489  0.23679662  0.29495493    -0.02300
C928        C  0.05801964  0.25307984  0.31115291    -0.00500
C929        C  0.08148428  0.27762936  0.28625371    -0.04100
C930        C  0.07388575  0.28552156  0.24484484     0.02900
C931        C  0.98683807  0.22851238  0.23686486     0.09700
C932        C  0.00303257  0.21191492  0.32081121     0.35600
C933        C  0.09783016  0.31008142  0.21821311     0.39000
C934        C  0.97713248  0.20428318  0.20570248    -0.04500
C935        C  0.94699021  0.19054773  0.18714482     0.02700
C936        C  0.92583809  0.20039234  0.20051413    -0.04100
C937        C  0.93562843  0.22442427  0.23253656    -0.00300
C938        C  0.96599489  0.23844209  0.25031490    -0.02900
C939        C  0.99824720  0.19337318  0.19298796     0.36400
C940        C  0.91432482  0.23426083  0.24857510     0.40000
C941        C  0.93828844  0.16694593  0.15320489     0.39100
C942        C  0.97589151  0.26309502  0.28285109     0.36000
C943        C  0.03547353  0.27755392  0.18636012     0.36700
C944        C  0.06537338  0.24534453  0.35415355     0.40000
N945        N  0.93138833  0.14816544  0.12608406    -0.38100
N946        N  0.01504797  0.18455997  0.18308055    -0.39700
N947        N  0.89741548  0.24219506  0.26144125    -0.37400
N948        N  0.98386539  0.28268779  0.30891630    -0.39800
N949        N  0.98370367  0.19208840  0.34143183    -0.39600
N950        N  0.07127338  0.23929366  0.38853753    -0.37200
N951        N  0.11679661  0.32967112  0.19684580    -0.38300
N952        N  0.02927761  0.28414007  0.15259085    -0.39900
C953        C  0.37560917  0.45060078  0.41000356    -0.04900
C954        C  0.35324374  0.42021864  0.42256611     0.09300
C955        C  0.36070223  0.40488450  0.45572700    -0.02300
C956        C  0.39012483  0.42003817  0.47681091    -0.00500
C957        C  0.41231429  0.45086422  0.46518500    -0.04100
C958        C  0.40498936  0.46580979  0.43093355     0.02900
C959        C  0.32134455  0.40489224  0.40210223     0.09700
C960        C  0.33788258  0.37346581  0.46822851     0.35600
C961        C  0.42808605  0.49642663  0.41555602     0.39000
C962        C  0.31565907  0.38983610  0.36061796    -0.04500
C963        C  0.28541462  0.37499581  0.34210318     0.02700
C964        C  0.26076903  0.37568015  0.36446547    -0.04100
C965        C  0.26686695  0.39205198  0.40497879    -0.00300
C966        C  0.29684539  0.40602298  0.42406984    -0.02900
C967        C  0.34098199  0.38962960  0.33705950     0.36400
C968        C  0.24215608  0.39396063  0.42777768     0.40000
C969        C  0.27979071  0.35982566  0.29933953     0.39100
C970        C  0.30250139  0.42128810  0.46678076     0.36000
C971        C  0.36829656  0.46625019  0.37537029     0.36700
C972        C  0.39724318  0.40404189  0.51106698     0.40000
N973        N  0.27519577  0.34782971  0.26511457    -0.38100
N974        N  0.36124720  0.38961868  0.31816873    -0.39700
N975        N  0.22259044  0.39564725  0.44612828    -0.37400
N976        N  0.30708930  0.43329734  0.50098972    -0.39800
N977        N  0.31955721  0.34840175  0.47809811    -0.39600
N978        N  0.40295019  0.39122672  0.53831883    -0.37200
N979        N  0.44637502  0.52077868  0.40294690    -0.38300
N980        N  0.36248249  0.47869196  0.34767546    -0.39900
C981        C  0.54153238  0.00557825  0.70761974    -0.04900
C982        C  0.51385702  0.99139172  0.73246847     0.09300
C983        C  0.48504482  0.97514791  0.71053966    -0.02300
C984        C  0.48366808  0.97449481  0.66388074    -0.00500
C985        C  0.51139405  0.98934293  0.63842179    -0.04100
C986        C  0.54040158  0.00425290  0.66083068     0.02900
C987        C  0.51463762  0.99511823  0.78177743     0.09700
C988        C  0.45664102  0.95968956  0.73629717     0.35600
C989        C  0.56921025  0.01805529  0.63602769     0.39000
C990        C  0.51092175  0.01906415  0.80029640    -0.04500
C991        C  0.50867145  0.02122300  0.84662035     0.02700
C992        C  0.51146068  0.99998826  0.87554615    -0.04100
C993        C  0.51625377  0.97647292  0.85625967    -0.00300
C994        C  0.51719277  0.97382086  0.80973444    -0.02900
C995        C  0.50878260  0.04125887  0.77121364     0.36400
C996        C  0.52035471  0.95472970  0.88362525     0.40000
C997        C  0.50207145  0.04470316  0.86351498     0.39100
C998        C  0.52011779  0.94866169  0.79031375     0.36000
C999        C  0.57115808  0.02210987  0.73039882     0.36700
C1000       C  0.45339305  0.96005488  0.64260320     0.40000
N1001       N  0.49666162  0.06341859  0.87659608    -0.38100
N1002       N  0.50715999  0.05893932  0.74795163    -0.39700
N1003       N  0.52358624  0.93723897  0.90516919    -0.37400
N1004       N  0.52225676  0.92851544  0.77472714    -0.39800
N1005       N  0.43405395  0.94731577  0.75692949    -0.39600
N1006       N  0.42921168  0.94860205  0.62578129    -0.37200
N1007       N  0.59225410  0.02905375  0.61636181    -0.38300
N1008       N  0.59473680  0.03533772  0.74872107    -0.39900
C1009       C  0.48811741  0.98191357  0.30295533    -0.04900
C1010       C  0.48557851  0.00620387  0.28273185     0.09300
C1011       C  0.48527062  0.02944768  0.30939353    -0.02300
C1012       C  0.48818069  0.02875098  0.35592275    -0.00500
C1013       C  0.49037708  0.00423026  0.37611246    -0.04100
C1014       C  0.49026683  0.98078014  0.34937554     0.02900
C1015       C  0.48508598  0.00797268  0.23315430     0.09700
C1016       C  0.48180802  0.05396599  0.28884601     0.35600
C1017       C  0.49377762  0.95608329  0.36937545     0.39000
C1018       C  0.45870554  0.98640713  0.20890113    -0.04500
C1019       C  0.45991363  0.98531251  0.16224142     0.02700
C1020       C  0.48698980  0.00677588  0.13945000    -0.04100
C1021       C  0.51282184  0.02934798  0.16360100    -0.00300
C1022       C  0.51209243  0.02951245  0.21028238    -0.02900
C1023       C  0.43050415  0.96503600  0.23214444     0.36400
C1024       C  0.54083182  0.05148664  0.14056571     0.40000
C1025       C  0.43338605  0.96199649  0.13766835     0.39100
C1026       C  0.53967161  0.05093052  0.23491866     0.36000
C1027       C  0.48922064  0.95836747  0.27578438     0.36700
C1028       C  0.48860958  0.05306846  0.38302283     0.40000
N1029       N  0.41232296  0.94329391  0.11800497    -0.38100
N1030       N  0.40802315  0.94802887  0.25078240    -0.39700
N1031       N  0.56319153  0.06923550  0.12235441    -0.37400
N1032       N  0.56167508  0.06790165  0.25464407    -0.39800
N1033       N  0.47899725  0.07348816  0.27237341    -0.39600
N1034       N  0.48911465  0.07254110  0.40468370    -0.37200
N1035       N  0.49659789  0.93633343  0.38502302    -0.38300
N1036       N  0.49000781  0.93958034  0.25404890    -0.39900
C1037       C  0.62844436  0.03930796  0.08883108    -0.04900
C1038       C  0.65172644  0.06642364  0.06829692     0.09300
C1039       C  0.64399294  0.07939810  0.03225283    -0.02300
C1040       C  0.61292758  0.06575716  0.01744758    -0.00500
C1041       C  0.58927941  0.03909421  0.03891030    -0.04100
C1042       C  0.59730662  0.02586567  0.07462541     0.02900
C1043       C  0.68427453  0.08192579  0.08584192     0.09700
C1044       C  0.66813132  0.10684619  0.01043325     0.35600
C1045       C  0.57342350  0.99939089  0.09855675     0.39000
C1046       C  0.70434482  0.07062232  0.07453035    -0.04500
C1047       C  0.73492208  0.08501508  0.09154501     0.02700
C1048       C  0.74581025  0.11105018  0.12042668    -0.04100
C1049       C  0.72499307  0.12162603  0.13257318    -0.00300
C1050       C  0.69459031  0.10732303  0.11497972    -0.02900
C1051       C  0.69337999  0.04405293  0.04515597     0.36400
C1052       C  0.73407207  0.14645285  0.16453729     0.40000
C1053       C  0.75493334  0.07286944  0.07842390     0.39100
C1054       C  0.67361580  0.11855642  0.12715438     0.36000
C1055       C  0.63659374  0.02546587  0.12506304     0.36700
C1056       C  0.60550785  0.07893707  0.97960728     0.40000
N1057       N  0.77048021  0.06268495  0.06798966    -0.38100
N1058       N  0.68453379  0.02278718  0.02189344    -0.39700
N1059       N  0.74089817  0.16618601  0.19005668    -0.37400
N1060       N  0.65685462  0.12749746  0.13667484    -0.39800
N1061       N  0.68741754  0.12874651  0.99307665    -0.39600
N1062       N  0.59957603  0.08944214  0.94942506    -0.37200
N1063       N  0.55440184  0.97836333  0.11778758    -0.38300
N1064       N  0.64321919  0.01435608  0.15372152    -0.39900
C1065       C  0.21241408  0.87379131  0.54008477    -0.04900
C1066       C  0.18545538  0.86244546  0.56619248     0.09300
C1067       C  0.15617695  0.84981525  0.54553470    -0.02300
C1068       C  0.15361439  0.84715139  0.49900284    -0.00500
C1069       C  0.18067244  0.85872738  0.47214608    -0.04100
C1070       C  0.21019293  0.87225462  0.49336806     0.02900
C1071       C  0.18743582  0.86095029  0.61560075     0.09700
C1072       C  0.12847034  0.83873971  0.57253821     0.35600
C1073       C  0.23852314  0.88412758  0.46771014     0.39000
C1074       C  0.19441869  0.88693369  0.64212247    -0.04500
C1075       C  0.19404272  0.88460389  0.68883798     0.02700
C1076       C  0.18661886  0.85599195  0.70969884    -0.04100
C1077       C  0.18122160  0.83038246  0.68229118    -0.00300
C1078       C  0.18145358  0.83294085  0.63573069    -0.02900
C1079       C  0.20165325  0.91605061  0.62108682     0.36400
C1080       C  0.17449191  0.80077575  0.70113523     0.40000
C1081       C  0.20155101  0.91199805  0.71491184     0.39100
C1082       C  0.17491362  0.80639862  0.60810951     0.36000
C1083       C  0.24246502  0.88632542  0.56161076     0.36700
C1084       C  0.12277708  0.83017568  0.47958780     0.40000
N1085       N  0.20744008  0.93395218  0.73540823    -0.38100
N1086       N  0.20754974  0.93927850  0.60420582    -0.39700
N1087       N  0.16929417  0.77711091  0.71575793    -0.37400
N1088       N  0.16960703  0.78531502  0.58592848    -0.39800
N1089       N  0.10641794  0.82999698  0.59408982    -0.39600
N1090       N  0.09816229  0.81634376  0.46429300    -0.37200
N1091       N  0.26127819  0.89336386  0.44765220    -0.38300
N1092       N  0.26635880  0.89625344  0.57896832    -0.39900
C1093       C  0.12447130  0.81138979  0.14136070    -0.04900
C1094       C  0.15021800  0.81736485  0.11513026     0.09300
C1095       C  0.17792276  0.82251340  0.13547224    -0.02300
C1096       C  0.18052689  0.82325134  0.18212121    -0.00500
C1097       C  0.15526218  0.81924791  0.20926963    -0.04100
C1098       C  0.12670567  0.81196999  0.18802187     0.02900
C1099       C  0.14876413  0.81987586  0.06586816     0.09700
C1100       C  0.20417828  0.82800226  0.10799452     0.35600
C1101       C  0.09922892  0.80505862  0.21346180     0.39000
C1102       C  0.15871490  0.84908606  0.04637083    -0.04500
C1103       C  0.15921565  0.85214788  0.99987646     0.02700
C1104       C  0.14939160  0.82571188  0.97210884    -0.04100
C1105       C  0.13861087  0.79621399  0.99227218    -0.00300
C1106       C  0.13834479  0.79343273  0.03885716    -0.02900
C1107       C  0.16911883  0.87621187  0.07450412     0.36400
C1108       C  0.12798853  0.76846755  0.96558720     0.40000
C1109       C  0.17156531  0.88301545  0.98122536     0.39100
C1110       C  0.12776400  0.76334204  0.05923159     0.36000
C1111       C  0.09578336  0.80545076  0.11999794     0.36700
C1112       C  0.20972789  0.82880500  0.20121873     0.40000
N1113       N  0.18146446  0.90770431  0.96660276    -0.38100
N1114       N  0.17739342  0.89774072  0.09709556    -0.39700
N1115       N  0.11979144  0.74611982  0.94486626    -0.37400
N1116       N  0.11931811  0.73935706  0.07552599    -0.39800
N1117       N  0.22505230  0.83246169  0.08594837    -0.39600
N1118       N  0.23310306  0.83311659  0.21598290    -0.37200
N1119       N  0.07720121  0.79964119  0.23340208    -0.38300
N1120       N  0.07297660  0.80078778  0.10284040    -0.39900
C1121       C  0.29219844  0.89563674  0.94281012    -0.04900
C1122       C  0.31422936  0.92498344  0.92629325     0.09300
C1123       C  0.30575095  0.93900540  0.89250167    -0.02300
C1124       C  0.27565659  0.92308018  0.87385103    -0.00500
C1125       C  0.25409077  0.89285794  0.88864299    -0.04100
C1126       C  0.26216893  0.87971194  0.92436576     0.02900
C1127       C  0.34701099  0.93998258  0.94242806     0.09700
C1128       C  0.32834676  0.96950299  0.87625601     0.35600
C1129       C  0.23931716  0.85017945  0.94328417     0.39000
C1130       C  0.36733506  0.93079718  0.92425033    -0.04500
C1131       C  0.39809792  0.94409630  0.93976537     0.02700
C1132       C  0.40871325  0.96651290  0.97406869    -0.04100
C1133       C  0.38835773  0.97586020  0.99207547    -0.00300
C1134       C  0.35752388  0.96254233  0.97628850    -0.02900
C1135       C  0.35645370  0.90752022  0.88948079     0.36400
C1136       C  0.39879530  0.99845202  0.02766582     0.40000
C1137       C  0.41909566  0.93541013  0.91911119     0.39100
C1138       C  0.33639430  0.97164557  0.99518298     0.36000
C1139       C  0.30068440  0.88162579  0.97844153     0.36700
C1140       C  0.26732186  0.93751991  0.83870625     0.40000
N1141       N  0.43576862  0.92847645  0.90250372    -0.38100
N1142       N  0.34768603  0.88887817  0.86187824    -0.39700
N1143       N  0.40711166  0.01647209  0.05609197    -0.37400
N1144       N  0.31944560  0.97883152  0.01016434    -0.39800
N1145       N  0.34645009  0.99385369  0.86341686    -0.39600
N1146       N  0.26073529  0.94923196  0.81085484    -0.37200
N1147       N  0.22114229  0.82672113  0.95859606    -0.38300
N1148       N  0.30747597  0.87042098  0.00677077    -0.39900
C1149       C  0.84812470  0.66652159  0.86882451    -0.04900
C1150       C  0.82704199  0.67344088  0.89015645     0.09300
C1151       C  0.80557074  0.67772822  0.86470091    -0.02300
C1152       C  0.80514863  0.67506983  0.81804190    -0.00500
C1153       C  0.82662734  0.66868885  0.79651121    -0.04100
C1154       C  0.84827503  0.66460859  0.82223715     0.02900
C1155       C  0.82696303  0.67510968  0.93971803     0.09700
C1156       C  0.78371917  0.68454253  0.88674397     0.35600
C1157       C  0.87160003  0.65956410  0.80092785     0.39000
C1158       C  0.84487845  0.70365794  0.96172911    -0.04500
C1159       C  0.84636184  0.70481251  0.00850194     0.02700
C1160       C  0.83076429  0.67708697  0.03382974    -0.04100
C1161       C  0.81240653  0.64847786  0.01121034    -0.00300
C1162       C  0.81025517  0.64770682  0.96457293    -0.02900
C1163       C  0.86240274  0.73180217  0.93600607     0.36400
C1164       C  0.79675991  0.61932103  0.03521734     0.40000
C1165       C  0.86370568  0.73475798  0.03019214     0.39100
C1166       C  0.79136386  0.61843989  0.94178419     0.36000
C1167       C  0.86956673  0.66114743  0.89506357     0.36700
C1168       C  0.78183809  0.67768390  0.79234547     0.40000
N1169       N  0.87752659  0.75868489  0.04738803    -0.38100
N1170       N  0.87649480  0.75420967  0.91544125    -0.39700
N1171       N  0.78425782  0.59599960  0.05418992    -0.37400
N1172       N  0.77630017  0.59515057  0.92352059    -0.39800
N1173       N  0.76635875  0.69002346  0.90451509    -0.39600
N1174       N  0.76307651  0.67949620  0.77181212    -0.37200
N1175       N  0.89038191  0.65565771  0.78431094    -0.38300
N1176       N  0.88645022  0.65664378  0.91612976    -0.39900
C1177       C  0.84267777  0.64594301  0.46158723    -0.04900
C1178       C  0.86347024  0.67397108  0.44033334     0.09300
C1179       C  0.88239714  0.70058217  0.46593054    -0.02300
C1180       C  0.87944231  0.69955385  0.51254363    -0.00500
C1181       C  0.85693047  0.67204939  0.53373958    -0.04100
C1182       C  0.83908574  0.64499210  0.50796059     0.02900
C1183       C  0.86293094  0.67584671  0.39086225     0.09700
C1184       C  0.90457757  0.72909955  0.44411246     0.35600
C1185       C  0.81586066  0.61640156  0.52861288     0.39000
C1186       C  0.84015435  0.68076907  0.37040424    -0.04500
C1187       C  0.83688516  0.67916629  0.32398309     0.02700
C1188       C  0.85715311  0.67374923  0.29742834    -0.04100
C1189       C  0.88061342  0.66977884  0.31779146    -0.00300
C1190       C  0.88329101  0.67052397  0.36449344    -0.02900
C1191       C  0.81999757  0.68746588  0.39735730     0.36400
C1192       C  0.90112090  0.66369046  0.29077784     0.40000
C1193       C  0.81252930  0.68312676  0.30369342     0.39100
C1194       C  0.90661389  0.66536576  0.38557571     0.36000
C1195       C  0.82446589  0.61814944  0.43535272     0.36700
C1196       C  0.90016788  0.72655703  0.53868738     0.40000
N1197       N  0.79280589  0.68602708  0.28805783    -0.38100
N1198       N  0.80407757  0.69297991  0.41889913    -0.39700
N1199       N  0.91739991  0.65872699  0.26916083    -0.37400
N1200       N  0.92520175  0.66125569  0.40254387    -0.39800
N1201       N  0.92230517  0.75182182  0.42662696    -0.39600
N1202       N  0.91686701  0.74800137  0.55959474    -0.37200
N1203       N  0.79734319  0.59358048  0.54503650    -0.38300
N1204       N  0.81011341  0.59601138  0.41431419    -0.39900
C1205       C  0.71030430  0.62563763  0.57228365    -0.04900
C1206       C  0.68714129  0.59763272  0.59107249     0.09300
C1207       C  0.69462752  0.58477881  0.62759024    -0.02300
C1208       C  0.72497094  0.59999032  0.64559441    -0.00500
C1209       C  0.74844774  0.62780287  0.62637058    -0.04100
C1210       C  0.74087637  0.64050915  0.58945452     0.02900
C1211       C  0.65455260  0.58186049  0.57313076     0.09700
C1212       C  0.67100441  0.55564408  0.64637953     0.35600
C1213       C  0.76472298  0.66831032  0.56787875     0.39000
C1214       C  0.64637853  0.56191684  0.53615927    -0.04500
C1215       C  0.61524269  0.54561123  0.52108023     0.02700
C1216       C  0.59190581  0.54911422  0.54292732    -0.04100
C1217       C  0.60048687  0.56989949  0.57928797    -0.00300
C1218       C  0.63165277  0.58628712  0.59399078    -0.02900
C1219       C  0.67016630  0.55830222  0.51359420     0.36400
C1220       C  0.57713624  0.57358646  0.60306313     0.40000
C1221       C  0.60749549  0.52582855  0.48235361     0.39100
C1222       C  0.64030617  0.60782453  0.63079199     0.36000
C1223       C  0.70262530  0.63906086  0.53502622     0.25900
C1224       C  0.73165025  0.58754166  0.68493944     0.40000
N1225       N  0.60135448  0.51008281  0.45141602    -0.38100
N1226       N  0.68925628  0.55562740  0.49553502    -0.39700
N1227       N  0.55854550  0.57654343  0.62209615    -0.37400
N1228       N  0.64733050  0.62512015  0.66000944    -0.39800
N1229       N  0.65210516  0.53231664  0.66110605    -0.39600
N1230       N  0.73694247  0.57774487  0.71650906    -0.37200
N1231       N  0.78373855  0.69045668  0.55063016    -0.38300
N1232       N  0.69649537  0.64976491  0.50530213    -0.39900
C1233       C  0.04389174  0.78431385  0.73621638    -0.04900
C1234       C  0.02160205  0.75536734  0.75353069     0.09300
C1235       C  0.02916081  0.74253632  0.78988660    -0.02300
C1236       C  0.05872145  0.75910753  0.80989244    -0.00500
C1237       C  0.08079820  0.78866376  0.79359555    -0.04100
C1238       C  0.07340835  0.80094470  0.75610501     0.02900
C1239       C  0.98927849  0.73965462  0.73575923     0.09700
C1240       C  0.00613598  0.71253455  0.80717551     0.35600
C1241       C  0.09630571  0.83049492  0.73730094     0.39000
C1242       C  0.98067165  0.71847815  0.70030525    -0.04500
C1243       C  0.95002688  0.70395201  0.68365161     0.02700
C1244       C  0.92813928  0.71121361  0.70177989    -0.04100
C1245       C  0.93696177  0.73251553  0.73738733    -0.00300
C1246       C  0.96732777  0.74636990  0.75457541    -0.02900
C1247       C  0.00342362  0.71171173  0.68111003     0.36400
C1248       C  0.91454883  0.73938321  0.75769353     0.40000
C1249       C  0.94123818  0.68197559  0.64741931     0.39100
C1250       C  0.97598381  0.76721296  0.79226645     0.36000
C1251       C  0.03623272  0.79711515  0.69815630     0.36700
C1252       C  0.06570978  0.74620565  0.84834773     0.40000
N1253       N  0.93417392  0.66432590  0.61864885    -0.38100
N1254       N  0.02164396  0.70639440  0.66581970    -0.39700
N1255       N  0.89678831  0.74496391  0.77396849    -0.37400
N1256       N  0.98294315  0.78366150  0.82251129    -0.39800
N1257       N  0.98765183  0.68859788  0.82079227    -0.39600
N1258       N  0.07075772  0.73549791  0.87908373    -0.37200
N1259       N  0.11443400  0.85406140  0.72222243    -0.38300
N1260       N  0.03014894  0.80730920  0.66776758    -0.39900
loop_ 
_geom_bond_atom_site_label_1 
_geom_bond_atom_site_label_2 
_geom_bond_distance 
_geom_bond_site_symmetry_2 
_ccdc_geom_bond_type 
O1           Ni9   1.911       .  S
O1           C11   1.280       .  A
O2           Ni9   1.917       .  S
O2           C12   1.281       .  A
O3           Ni9   1.926       .  S
O3           C13   1.283       .  A
O4           Ni9   1.924       .  S
O4           C14   1.283       .  A
O5          Ni10   1.914       .  S
O5           C14   1.281       .  A
O6          Ni10   1.917       .  S
O6           C13   1.281       .  A
O7          Ni10   1.925       .  S
O7           C12   1.283       .  A
O8          Ni10   1.917       .  S
O8           C11   1.281       .  A
Ni9         Ni10   2.387       .  S
C11        C1244   1.482       .  S
C12        C1209   1.495       .  S
C13        C1153   1.490       .  S
C14        C1181   1.492       .  S
O15         Ni23   1.910       .  S
O15          C25   1.280       .  A
O16         Ni23   1.919       .  S
O16          C26   1.281       .  A
O17         Ni23   1.923       .  S
O17          C27   1.283       .  A
O18         Ni23   1.920       .  S
O18          C28   1.283       .  A
O19         Ni24   1.917       .  S
O19          C28   1.281       .  A
O20         Ni24   1.917       .  S
O20          C27   1.281       .  A
O21         Ni24   1.911       .  S
O21          C26   1.281       .  A
O22         Ni24   1.920       .  S
O22          C25   1.281       .  A
Ni23        Ni24   2.383       .  S
C25        C1237   1.483       .  S
C26        C1125   1.485       .  S
C27        C1076   1.509       .  S
C28        C1104   1.502       .  S
O29         Ni37   1.917       .  S
O29          C39   1.281       .  A
O30         Ni37   1.922   1_556  S
O30          C40   1.282   1_545  A
O31         Ni37   1.918       .  S
O31          C41   1.281       .  A
O32         Ni37   1.919   1_556  S
O32          C42   1.282       .  A
O33         Ni38   1.920   1_556  S
O33          C42   1.282   1_565  A
O34         Ni38   1.920       .  S
O34          C41   1.281   1_565  A
O35         Ni38   1.909   1_556  S
O35          C40   1.280       .  A
O36         Ni38   1.916       .  S
O36          C39   1.281   1_565  A
Ni37        Ni38   2.384   1_545  S
C39        C1041   1.490       .  S
C40        C1132   1.484       .  S
C41        C1020   1.483       .  S
C42         C992   1.511   1_545  S
O43         Ni51   1.916       .  S
O43          C53   1.281       .  A
O44         Ni51   1.925       .  S
O44          C54   1.282       .  A
O45         Ni51   1.931       .  S
O45          C55   1.285       .  A
O46         Ni51   1.928       .  S
O46          C56   1.283       .  A
O47         Ni52   1.920       .  S
O47          C56   1.281       .  A
O48         Ni52   1.920       .  S
O48          C55   1.282       .  A
O49         Ni52   1.925       .  S
O49          C54   1.283       .  A
O50         Ni52   1.927       .  S
O50          C53   1.283       .  A
Ni51        Ni52   2.387       .  S
C53         C929   1.488       .  S
C54         C964   1.491       .  S
C55         C901   1.504       .  S
C56         C880   1.489       .  S
O57         Ni65   1.924       .  S
O57          C67   1.283       .  A
O58         Ni65   1.924       .  S
O58          C68   1.283       .  A
O59         Ni65   1.914       .  S
O59          C69   1.281       .  A
O60         Ni65   1.910       .  S
O60          C70   1.280       .  A
O61         Ni66   1.922       .  S
O61          C70   1.282       .  A
O62         Ni66   1.915       .  S
O62          C69   1.281       .  A
O63         Ni66   1.916       .  S
O63          C68   1.281       .  A
O64         Ni66   1.917       .  S
O64          C67   1.281       .  A
Ni65        Ni66   2.377       .  S
C67         C936   1.499       .  S
C68        C1048   1.503       .  S
C69         C845   1.500       .  S
C70         C817   1.505       .  S
O71         Ni79   1.921       .  S
O71          C81   1.282       .  A
O72         Ni79   1.919       .  S
O72          C82   1.282       .  A
O73         Ni79   1.923       .  S
O73          C83   1.282       .  A
O74         Ni79   1.918       .  S
O74          C84   1.281       .  A
O75         Ni80   1.918       .  S
O75          C84   1.282       .  A
O76         Ni80   1.924       .  S
O76          C83   1.282       .  A
O77         Ni80   1.929       .  S
O77          C82   1.284       .  A
O78         Ni80   1.927       .  S
O78          C81   1.283       .  A
Ni79        Ni80   2.386       .  S
C81        C1216   1.498       .  S
C82         C957   1.498       .  S
C83         C761   1.489       .  S
C84         C796   1.488       .  S
O85         Ni93   1.923       .  S
O85          C95   1.283       .  A
O86         Ni93   1.919       .  S
O86          C96   1.281       .  A
O87         Ni93   1.922       .  S
O87          C97   1.282       .  A
O88         Ni93   1.930       .  S
O88          C98   1.284       .  A
O89         Ni94   1.925       .  S
O89          C98   1.282       .  A
O90         Ni94   1.921       .  S
O90          C97   1.282       .  A
O91         Ni94   1.911       .  S
O91          C96   1.280       .  A
O92         Ni94   1.915       .  S
O92          C95   1.281       .  A
Ni93        Ni94   2.386       .  S
C95         C733   1.498       .  S
C96         C705   1.484       .  S
C97         C873   1.491       .  S
C98         C908   1.499       .  S
O99        Ni107   1.924       .  S
O99         C109   1.282       .  A
O100       Ni107   1.924       .  S
O100        C110   1.283       .  A
O101       Ni107   1.920       .  S
O101        C111   1.282       .  A
O102       Ni107   1.921       .  S
O102        C112   1.282       .  A
O103       Ni108   1.919       .  S
O103        C112   1.282       .  A
O104       Ni108   1.917       .  S
O104        C111   1.282       .  A
O105       Ni108   1.916       .  S
O105        C110   1.281       .  A
O106       Ni108   1.915       .  S
O106        C109   1.281       .  A
Ni107      Ni108   2.386       .  S
C109        C740   1.487       .  S
C110        C677   1.490       .  S
C111        C621   1.496       .  S
C112        C649   1.496       .  S
O113       Ni121   1.918   1_554  S
O113        C123   1.281       .  A
O114       Ni121   1.913       .  S
O114        C124   1.280   1_655  A
O115       Ni121   1.916   1_554  S
O115        C125   1.281       .  A
O116       Ni121   1.920       .  S
O116        C126   1.282       .  A
O117       Ni122   1.916       .  S
O117        C126   1.281   1_455  A
O118       Ni122   1.922   1_554  S
O118        C125   1.282   1_455  A
O119       Ni122   1.917       .  S
O119        C124   1.281       .  A
O120       Ni122   1.915   1_654  S
O120        C123   1.282       .  A
Ni121      Ni122   2.385   1_655  S
C123        C600   1.499       .  S
C124        C712   1.483       .  S
C125        C565   1.495       .  S
C126        C544   1.488       .  S
O127       Ni135   1.924       .  S
O127        C137   1.283       .  A
O128       Ni135   1.930       .  S
O128        C138   1.284       .  A
O129       Ni135   1.916       .  S
O129        C139   1.281       .  A
O130       Ni135   1.919       .  S
O130        C140   1.282       .  A
O131       Ni136   1.931       .  S
O131        C140   1.284       .  A
O132       Ni136   1.925       .  S
O132        C139   1.283       .  A
O133       Ni136   1.909       .  S
O133        C138   1.279       .  A
O134       Ni136   1.913       .  S
O134        C137   1.280       .  A
Ni135      Ni136   2.385       .  S
C137        C488   1.488       .  S
C138        C516   1.491       .  S
C139        C460   1.487       .  S
C140        C425   1.507       .  S
O141       Ni149   1.914       .  S
O141        C151   1.281       .  A
O142       Ni149   1.921       .  S
O142        C152   1.281       .  A
O143       Ni149   1.917       .  S
O143        C153   1.281       .  A
O144       Ni149   1.917       .  S
O144        C154   1.281       .  A
O145       Ni150   1.921       .  S
O145        C154   1.282       .  A
O146       Ni150   1.924       .  S
O146        C153   1.282       .  A
O147       Ni150   1.915       .  S
O147        C152   1.281       .  A
O148       Ni150   1.921       .  S
O148        C151   1.282       .  A
Ni149      Ni150   2.386       .  S
C151        C481   1.492       .  S
C152        C593   1.485       .  S
C153       C1188   1.484       .  S
C154       C1160   1.502       .  S
O155       Ni163   1.921       .  S
O155        C165   1.281   1_565  A
O156       Ni163   1.915       .  S
O156        C166   1.281       .  A
O157       Ni163   1.914       .  S
O157        C167   1.281       .  A
O158       Ni163   1.913       .  S
O158        C168   1.280   1_565  A
O159       Ni164   1.925       .  S
O159        C168   1.282       .  A
O160       Ni164   1.924       .  S
O160        C167   1.283   1_545  A
O161       Ni164   1.923       .  S
O161        C166   1.282   1_545  A
O162       Ni164   1.919       .  S
O162        C165   1.282       .  A
Ni163      Ni164   2.387   1_565  S
C165        C684   1.486       .  S
C166        C509   1.493       .  S
C167        C985   1.499       .  S
C168       C1013   1.485       .  S
O169       Ni177   1.923       .  S
O169        C179   1.282       .  A
O170       Ni177   1.924       .  S
O170        C180   1.283       .  A
O171       Ni177   1.918       .  S
O171        C181   1.281       .  A
O172       Ni177   1.919       .  S
O172        C182   1.282       .  A
O173       Ni178   1.920       .  S
O173        C182   1.282       .  A
O174       Ni178   1.918       .  S
O174        C181   1.282       .  A
O175       Ni178   1.916       .  S
O175        C180   1.280       .  A
O176       Ni178   1.920       .  S
O176        C179   1.281       .  A
Ni177      Ni178   2.380       .  S
C179        C628   1.486       .  S
C180        C656   1.514       .  S
C181        C404   1.490       .  S
C182        C369   1.505       .  S
O183       Ni191   1.924   1_556  S
O183        C193   1.283       .  A
O184       Ni191   1.924       .  S
O184        C194   1.283       .  A
O185       Ni191   1.918   1_556  S
O185        C195   1.281       .  A
O186       Ni191   1.919       .  S
O186        C196   1.281       .  A
O187       Ni192   1.917       .  S
O187        C196   1.281       .  A
O188       Ni192   1.922   1_556  S
O188        C195   1.282       .  A
O189       Ni192   1.917       .  S
O189        C194   1.281       .  A
O190       Ni192   1.918   1_556  S
O190        C193   1.281       .  A
Ni191      Ni192   2.382       .  S
C193        C768   1.489       .  S
C194        C789   1.517       .  S
C195        C348   1.492       .  S
C196        C397   1.487       .  S
O197       Ni205   1.934       .  S
O197        C207   1.284       .  A
O198       Ni205   1.925       .  S
O198        C208   1.283       .  A
O199       Ni205   1.920       .  S
O199        C209   1.282       .  A
O200       Ni205   1.919       .  S
O200        C210   1.281       .  A
O201       Ni206   1.918       .  S
O201        C210   1.282       .  A
O202       Ni206   1.918       .  S
O202        C209   1.282       .  A
O203       Ni206   1.914       .  S
O203        C208   1.280       .  A
O204       Ni206   1.909       .  S
O204        C207   1.279       .  A
Ni205      Ni206   2.381       .  S
C207        C376   1.490       .  S
C208        C313   1.489       .  S
C209       C1097   1.512       .  S
C210       C1069   1.504       .  S
O211       Ni219   1.920       .  S
O211        C221   1.282       .  A
O212       Ni219   1.917       .  S
O212        C222   1.281   1_655  A
O213       Ni219   1.921       .  S
O213        C223   1.281   1_655  A
O214       Ni219   1.922       .  S
O214        C224   1.283       .  A
O215       Ni220   1.918   1_655  S
O215        C224   1.281       .  A
O216       Ni220   1.922       .  S
O216        C223   1.281       .  A
O217       Ni220   1.922       .  S
O217        C222   1.282       .  A
O218       Ni220   1.926       .  S
O218        C221   1.282   1_455  A
Ni219      Ni220   2.380   1_655  S
C221        C572   1.490       .  S
C222        C537   1.516       .  S
C223        C320   1.487       .  S
C224        C292   1.502       .  S
O225       Ni233   1.919       .  S
O225        C235   1.281       .  A
O226       Ni233   1.915       .  S
O226        C236   1.282       .  A
O227       Ni233   1.918       .  S
O227        C237   1.281       .  A
O228       Ni233   1.924       .  S
O228        C238   1.282       .  A
O229       Ni234   1.920       .  S
O229        C238   1.282       .  A
O230       Ni234   1.926       .  S
O230        C237   1.282       .  A
O231       Ni234   1.914       .  S
O231        C236   1.281       .  A
O232       Ni234   1.916       .  S
O232        C235   1.282       .  A
Ni233      Ni234   2.384       .  S
C235        C852   1.495       .  S
C236        C824   1.498       .  S
C237        C285   1.488       .  S
C238        C264   1.496       .  S
O239       Ni247   1.920       .  S
O239        C249   1.282       .  A
O240       Ni247   1.921       .  S
O240        C250   1.282       .  A
O241       Ni247   1.927       .  S
O241        C251   1.283       .  A
O242       Ni247   1.928       .  S
O242        C252   1.283       .  A
O243       Ni248   1.922       .  S
O243        C252   1.282       .  A
O244       Ni248   1.920       .  S
O244        C251   1.282       .  A
O245       Ni248   1.920       .  S
O245        C250   1.282       .  A
O246       Ni248   1.926       .  S
O246        C249   1.283       .  A
Ni247      Ni248   2.385       .  S
C249        C341   1.495       .  S
C250        C257   1.491       .  S
C251        C453   1.503       .  S
C252        C432   1.494       .  S
C253        C254   1.410       .  A
C253        C258   1.411       .  A
C253        C271   1.451       .  S
C254        C259   1.500   1_565  S
C254        C255   1.412       .  A
C255        C256   1.414       .  A
C255        C260   1.450   1_565  S
C256        C257   1.415       .  A
C256        C272   1.450       .  S
C257        C258   1.417       .  A
C258        C261   1.452       .  S
C259        C262   1.410       .  A
C259        C266   1.409       .  A
C260        N277   1.157       .  T
C261        N279   1.157       .  T
C262        C263   1.414       .  A
C262        C267   1.451       .  S
C263        C264   1.417       .  A
C263        C269   1.448       .  S
C264        C265   1.420       .  A
C265        C266   1.412       .  A
C265        C268   1.452       .  S
C266        C270   1.451       .  S
C267        N274   1.157   1_545  T
C268        N275   1.158       .  T
C269        N273   1.156       .  T
C270        N276   1.157       .  T
C271        N280   1.157       .  T
C272        N278   1.157       .  T
C281        C282   1.410       .  A
C281        C286   1.410       .  A
C281        C299   1.451       .  S
C282        C287   1.498       .  S
C282        C283   1.411       .  A
C283        C284   1.414       .  A
C283        C288   1.451       .  S
C284        C285   1.414       .  A
C284        C300   1.449       .  S
C285        C286   1.416       .  A
C286        C289   1.451       .  S
C287        C290   1.408       .  A
C287        C294   1.408       .  A
C288        N305   1.157       .  T
C289        N307   1.157       .  T
C290        C291   1.413       .  A
C290        C295   1.451       .  S
C291        C292   1.423       .  A
C291        C297   1.451       .  S
C292        C293   1.421       .  A
C293        C294   1.412       .  A
C293        C296   1.450       .  S
C294        C298   1.452       .  S
C295        N302   1.157       .  T
C296        N303   1.157   1_655  T
C297        N301   1.157       .  T
C298        N304   1.157       .  T
C299        N308   1.157       .  T
C300        N306   1.157       .  T
C309        C310   1.412       .  A
C309        C314   1.412       .  A
C309        C327   1.451       .  S
C310        C315   1.501       .  S
C310        C311   1.412       .  A
C311        C312   1.413       .  A
C311        C316   1.450       .  S
C312        C313   1.416       .  A
C312        C328   1.451       .  S
C313        C314   1.414       .  A
C314        C317   1.451       .  S
C315        C318   1.412       .  A
C315        C322   1.413       .  A
C316        N333   1.157       .  T
C317        N335   1.157       .  T
C318        C319   1.411       .  A
C318        C323   1.451       .  S
C319        C320   1.414       .  A
C319        C325   1.451       .  S
C320        C321   1.414       .  A
C321        C322   1.414       .  A
C321        C324   1.451       .  S
C322        C326   1.450       .  S
C323        N330   1.157       .  T
C324        N331   1.157       .  T
C325        N329   1.157       .  T
C326        N332   1.157       .  T
C327        N336   1.157       .  T
C328        N334   1.158       .  T
C337        C338   1.411       .  A
C337        C342   1.412       .  A
C337        C355   1.451       .  S
C338        C343   1.502       .  S
C338        C339   1.412       .  A
C339        C340   1.415       .  A
C339        C344   1.450       .  S
C340        C341   1.416       .  A
C340        C356   1.450       .  S
C341        C342   1.418       .  A
C342        C345   1.451       .  S
C343        C346   1.412       .  A
C343        C350   1.411       .  A
C344        N361   1.157       .  T
C345        N363   1.158       .  T
C346        C347   1.412       .  A
C346        C351   1.451       .  S
C347        C348   1.415       .  A
C347        C353   1.451   1_556  S
C348        C349   1.417       .  A
C349        C350   1.413       .  A
C349        C352   1.452       .  S
C350        C354   1.450       .  S
C351        N358   1.157   1_556  T
C352        N359   1.157       .  T
C353        N357   1.157       .  T
C354        N360   1.157       .  T
C355        N364   1.157   1_556  T
C356        N362   1.157       .  T
C365        C366   1.409       .  A
C365        C370   1.413       .  A
C365        C383   1.452       .  S
C366        C371   1.501   1_545  S
C366        C367   1.409       .  A
C367        C368   1.413       .  A
C367        C372   1.452       .  S
C368        C369   1.422       .  A
C368        C384   1.451       .  S
C369        C370   1.424       .  A
C370        C373   1.452       .  S
C371        C374   1.410       .  A
C371        C378   1.413       .  A
C372        N389   1.157   1_545  T
C373        N391   1.158       .  T
C374        C375   1.411       .  A
C374        C379   1.451       .  S
C375        C376   1.418       .  A
C375        C381   1.452       .  S
C376        C377   1.413       .  A
C377        C378   1.414       .  A
C377        C380   1.449       .  S
C378        C382   1.451   1_565  S
C379        N386   1.157       .  T
C380        N387   1.157       .  T
C381        N385   1.157       .  T
C382        N388   1.157       .  T
C383        N392   1.157       .  T
C384        N390   1.158       .  T
C393        C394   1.409       .  A
C393        C398   1.409       .  A
C393        C411   1.451       .  S
C394        C399   1.495       .  S
C394        C395   1.411       .  A
C395        C396   1.413       .  A
C395        C400   1.450       .  S
C396        C397   1.415       .  A
C396        C412   1.450   1_554  S
C397        C398   1.416       .  A
C398        C401   1.452       .  S
C399        C402   1.410       .  A
C399        C406   1.409       .  A
C400        N417   1.157       .  T
C401        N419   1.157       .  T
C402        C403   1.412       .  A
C402        C407   1.451       .  S
C403        C404   1.417       .  A
C403        C409   1.451       .  S
C404        C405   1.417       .  A
C405        C406   1.410       .  A
C405        C408   1.452       .  S
C406        C410   1.451       .  S
C407        N414   1.157       .  T
C408        N415   1.157       .  T
C409        N413   1.157       .  T
C410        N416   1.157       .  T
C411        N420   1.157       .  T
C412        N418   1.157       .  T
C421        C422   1.411       .  A
C421        C426   1.417       .  A
C421        C439   1.450       .  S
C422        C427   1.505       .  S
C422        C423   1.409       .  A
C423        C424   1.413       .  A
C423        C428   1.452       .  S
C424        C425   1.423       .  A
C424        C440   1.451       .  S
C425        C426   1.421       .  A
C426        C429   1.450       .  S
C427        C430   1.411       .  A
C427        C434   1.413       .  A
C428        N445   1.157       .  T
C429        N447   1.157       .  T
C430        C431   1.411       .  A
C430        C435   1.452       .  S
C431        C432   1.417       .  A
C431        C437   1.452       .  S
C432        C433   1.415       .  A
C433        C434   1.418       .  A
C433        C436   1.450       .  S
C434        C438   1.449       .  S
C435        N442   1.157       .  T
C436        N443   1.157       .  T
C437        N441   1.157       .  T
C438        N444   1.157       .  T
C439        N448   1.157       .  T
C440        N446   1.157       .  T
C449        C450   1.409       .  A
C449        C454   1.412   1_554  A
C449        C467   1.452       .  S
C450        C455   1.501       .  S
C450        C451   1.410       .  A
C451        C452   1.415   1_554  A
C451        C456   1.451       .  S
C452        C453   1.420       .  A
C452        C468   1.450       .  S
C453        C454   1.422       .  A
C454        C457   1.451       .  S
C455        C458   1.411       .  A
C455        C462   1.412       .  A
C456        N473   1.157       .  T
C457        N475   1.157       .  T
C458        C459   1.409       .  A
C458        C463   1.452       .  S
C459        C460   1.415       .  A
C459        C465   1.452       .  S
C460        C461   1.413       .  A
C461        C462   1.415       .  A
C461        C464   1.450       .  S
C462        C466   1.449       .  S
C463        N470   1.157       .  T
C464        N471   1.157       .  T
C465        N469   1.157       .  T
C466        N472   1.157       .  T
C467        N476   1.157       .  T
C468        N474   1.157       .  T
C477        C478   1.409       .  A
C477        C482   1.411       .  A
C477        C495   1.451       .  S
C478        C483   1.496       .  S
C478        C479   1.409       .  A
C479        C480   1.412       .  A
C479        C484   1.451       .  S
C480        C481   1.419       .  A
C480        C496   1.451       .  S
C481        C482   1.417       .  A
C482        C485   1.451       .  S
C483        C486   1.412       .  A
C483        C490   1.408       .  A
C484        N501   1.157       .  T
C485        N503   1.157       .  T
C486        C487   1.412       .  A
C486        C491   1.451       .  S
C487        C488   1.413       .  A
C487        C493   1.450       .  S
C488        C489   1.419       .  A
C489        C490   1.411       .  A
C489        C492   1.452       .  S
C490        C494   1.451       .  S
C491        N498   1.157       .  T
C492        N499   1.157       .  T
C493        N497   1.157       .  T
C494        N500   1.157       .  T
C495        N504   1.157       .  T
C496        N502   1.157       .  T
C505        C506   1.410       .  A
C505        C510   1.410       .  A
C505        C523   1.451       .  S
C506        C511   1.498       .  S
C506        C507   1.410       .  A
C507        C508   1.414       .  A
C507        C512   1.451       .  S
C508        C509   1.419       .  A
C508        C524   1.451   1_565  S
C509        C510   1.415       .  A
C510        C513   1.451       .  S
C511        C514   1.412       .  A
C511        C518   1.409       .  A
C512        N529   1.157       .  T
C513        N531   1.157       .  T
C514        C515   1.415       .  A
C514        C519   1.450       .  S
C515        C516   1.416       .  A
C515        C521   1.450       .  S
C516        C517   1.417       .  A
C517        C518   1.409       .  A
C517        C520   1.452       .  S
C518        C522   1.451       .  S
C519        N526   1.157       .  T
C520        N527   1.157       .  T
C521        N525   1.157       .  T
C522        N528   1.157       .  T
C523        N532   1.157       .  T
C524        N530   1.158       .  T
C533        C534   1.407       .  A
C533        C538   1.414       .  A
C533        C551   1.453       .  S
C534        C539   1.500   1_455  S
C534        C535   1.406   1_455  A
C535        C536   1.413       .  A
C535        C540   1.453       .  S
C536        C537   1.430   1_655  A
C536        C552   1.451       .  S
C537        C538   1.429       .  A
C538        C541   1.451       .  S
C539        C542   1.412   1_655  A
C539        C546   1.411       .  A
C540        N557   1.157       .  T
C541        N559   1.158       .  T
C542        C543   1.413       .  A
C542        C547   1.450       .  S
C543        C544   1.414   1_455  A
C543        C549   1.451       .  S
C544        C545   1.417       .  A
C545        C546   1.410       .  A
C545        C548   1.452       .  S
C546        C550   1.452       .  S
C547        N554   1.157       .  T
C548        N555   1.157       .  T
C549        N553   1.157       .  T
C550        N556   1.157       .  T
C551        N560   1.157       .  T
C552        N558   1.158       .  T
C561        C562   1.411   1_455  A
C561        C566   1.414       .  A
C561        C579   1.450       .  S
C562        C567   1.500       .  S
C562        C563   1.410       .  A
C563        C564   1.411       .  A
C563        C568   1.452       .  S
C564        C565   1.420       .  A
C564        C580   1.452       .  S
C565        C566   1.417   1_655  A
C566        C569   1.450       .  S
C567        C570   1.411       .  A
C567        C574   1.411       .  A
C568        N585   1.157       .  T
C569        N587   1.157       .  T
C570        C571   1.411       .  A
C570        C575   1.451       .  S
C571        C572   1.416       .  A
C571        C577   1.452       .  S
C572        C573   1.414       .  A
C573        C574   1.414       .  A
C573        C576   1.447       .  S
C574        C578   1.451       .  S
C575        N582   1.157       .  T
C576        N583   1.156       .  T
C577        N581   1.157       .  T
C578        N584   1.157       .  T
C579        N588   1.157       .  T
C580        N586   1.158       .  T
C589        C590   1.411       .  A
C589        C594   1.413       .  A
C589        C607   1.450       .  S
C590        C595   1.496       .  S
C590        C591   1.409       .  A
C591        C592   1.409       .  A
C591        C596   1.452       .  S
C592        C593   1.416       .  A
C592        C608   1.452       .  S
C593        C594   1.413       .  A
C594        C597   1.450       .  S
C595        C598   1.408       .  A
C595        C602   1.407       .  A
C596        N613   1.157   1_554  T
C597        N615   1.157       .  T
C598        C599   1.413       .  A
C598        C603   1.451       .  S
C599        C600   1.421       .  A
C599        C605   1.451   1_554  S
C600        C601   1.422       .  A
C601        C602   1.410       .  A
C601        C604   1.452       .  S
C602        C606   1.452       .  S
C603        N610   1.157       .  T
C604        N611   1.158   1_655  T
C605        N609   1.157       .  T
C606        N612   1.157       .  T
C607        N616   1.157       .  T
C608        N614   1.157       .  T
C617        C618   1.409       .  A
C617        C622   1.412       .  A
C617        C635   1.451       .  S
C618        C623   1.498       .  S
C618        C619   1.410       .  A
C619        C620   1.412       .  A
C619        C624   1.450       .  S
C620        C621   1.417       .  A
C620        C636   1.451       .  S
C621        C622   1.420       .  A
C622        C625   1.451       .  S
C623        C626   1.410       .  A
C623        C630   1.412       .  A
C624        N641   1.157       .  T
C625        N643   1.157       .  T
C626        C627   1.411   1_556  A
C626        C631   1.450       .  S
C627        C628   1.412       .  A
C627        C633   1.448       .  S
C628        C629   1.415   1_554  A
C629        C630   1.413       .  A
C629        C632   1.451   1_556  S
C630        C634   1.451       .  S
C631        N638   1.157       .  T
C632        N639   1.157       .  T
C633        N637   1.157       .  T
C634        N640   1.157       .  T
C635        N644   1.157       .  T
C636        N642   1.157       .  T
C645        C646   1.410       .  A
C645        C650   1.412       .  A
C645        C663   1.450       .  S
C646        C651   1.501       .  S
C646        C647   1.411       .  A
C647        C648   1.413       .  A
C647        C652   1.452       .  S
C648        C649   1.419       .  A
C648        C664   1.451       .  S
C649        C650   1.418       .  A
C650        C653   1.451       .  S
C651        C654   1.407       .  A
C651        C658   1.408       .  A
C652        N669   1.157       .  T
C653        N671   1.157       .  T
C654        C655   1.414       .  A
C654        C659   1.453       .  S
C655        C656   1.429       .  A
C655        C661   1.452       .  S
C656        C657   1.426       .  A
C657        C658   1.413       .  A
C657        C660   1.451       .  S
C658        C662   1.452       .  S
C659        N666   1.157       .  T
C660        N667   1.158       .  T
C661        N665   1.158       .  T
C662        N668   1.157       .  T
C663        N672   1.157       .  T
C664        N670   1.158       .  T
C673        C674   1.410       .  A
C673        C678   1.411       .  A
C673        C691   1.451       .  S
C674        C679   1.499       .  S
C674        C675   1.411       .  A
C675        C676   1.414       .  A
C675        C680   1.450       .  S
C676        C677   1.415       .  A
C676        C692   1.450       .  S
C677        C678   1.417       .  A
C678        C681   1.452       .  S
C679        C682   1.411       .  A
C679        C686   1.412       .  A
C680        N697   1.157       .  T
C681        N699   1.157       .  T
C682        C683   1.411       .  A
C682        C687   1.451       .  S
C683        C684   1.415       .  A
C683        C689   1.452       .  S
C684        C685   1.413       .  A
C685        C686   1.413       .  A
C685        C688   1.450       .  S
C686        C690   1.450       .  S
C687        N694   1.157       .  T
C688        N695   1.157   1_545  T
C689        N693   1.157       .  T
C690        N696   1.157       .  T
C691        N700   1.157       .  T
C692        N698   1.157       .  T
C701        C702   1.409       .  A
C701        C706   1.408       .  A
C701        C719   1.451       .  S
C702        C707   1.492       .  S
C702        C703   1.410       .  A
C703        C704   1.412       .  A
C703        C708   1.451       .  S
C704        C705   1.415       .  A
C704        C720   1.451       .  S
C705        C706   1.416       .  A
C706        C709   1.452       .  S
C707        C710   1.409       .  A
C707        C714   1.411       .  A
C708        N725   1.157       .  T
C709        N727   1.157       .  T
C710        C711   1.409       .  A
C710        C715   1.451       .  S
C711        C712   1.417       .  A
C711        C717   1.452       .  S
C712        C713   1.413       .  A
C713        C714   1.410       .  A
C713        C716   1.451   1_556  S
C714        C718   1.451       .  S
C715        N722   1.157       .  T
C716        N723   1.157   1_455  T
C717        N721   1.157       .  T
C718        N724   1.157       .  T
C719        N728   1.157       .  T
C720        N726   1.157       .  T
C729        C730   1.410       .  A
C729        C734   1.414       .  A
C729        C747   1.450       .  S
C730        C735   1.499       .  S
C730        C731   1.408       .  A
C731        C732   1.411       .  A
C731        C736   1.451       .  S
C732        C733   1.422       .  A
C732        C748   1.452       .  S
C733        C734   1.418       .  A
C734        C737   1.450       .  S
C735        C738   1.412       .  A
C735        C742   1.410       .  A
C736        N753   1.157       .  T
C737        N755   1.157       .  T
C738        C739   1.414       .  A
C738        C743   1.450       .  S
C739        C740   1.413       .  A
C739        C745   1.450       .  S
C740        C741   1.416       .  A
C741        C742   1.409       .  A
C741        C744   1.452       .  S
C742        C746   1.451       .  S
C743        N750   1.157       .  T
C744        N751   1.157       .  T
C745        N749   1.157       .  T
C746        N752   1.157       .  T
C747        N756   1.157       .  T
C748        N754   1.157       .  T
C757        C758   1.414       .  A
C757        C762   1.414       .  A
C757        C775   1.450       .  S
C758        C763   1.506       .  S
C758        C759   1.413       .  A
C759        C760   1.414       .  A
C759        C764   1.451       .  S
C760        C761   1.415       .  A
C760        C776   1.451       .  S
C761        C762   1.412       .  A
C762        C765   1.450       .  S
C763        C766   1.414       .  A
C763        C770   1.413       .  A
C764        N781   1.157       .  T
C765        N783   1.157       .  T
C766        C767   1.415       .  A
C766        C771   1.450       .  S
C767        C768   1.414       .  A
C767        C773   1.451       .  S
C768        C769   1.414       .  A
C769        C770   1.411       .  A
C769        C772   1.452       .  S
C770        C774   1.451       .  S
C771        N778   1.157       .  T
C772        N779   1.157       .  T
C773        N777   1.157       .  T
C774        N780   1.157       .  T
C775        N784   1.157       .  T
C776        N782   1.157       .  T
C785        C786   1.407       .  A
C785        C790   1.415       .  A
C785        C803   1.453       .  S
C786        C791   1.499       .  S
C786        C787   1.405       .  A
C787        C788   1.412       .  A
C787        C792   1.453       .  S
C788        C789   1.430       .  A
C788        C804   1.451       .  S
C789        C790   1.429       .  A
C790        C793   1.451       .  S
C791        C794   1.410       .  A
C791        C798   1.411       .  A
C792        N809   1.157       .  T
C793        N811   1.158       .  T
C794        C795   1.409       .  A
C794        C799   1.452       .  S
C795        C796   1.417       .  A
C795        C801   1.452       .  S
C796        C797   1.414       .  A
C797        C798   1.413       .  A
C797        C800   1.450       .  S
C798        C802   1.450       .  S
C799        N806   1.157       .  T
C800        N807   1.157       .  T
C801        N805   1.157       .  T
C802        N808   1.157       .  T
C803        N812   1.157       .  T
C804        N810   1.157       .  T
C813        C814   1.408       .  A
C813        C818   1.411   1_556  A
C813        C831   1.453       .  S
C814        C819   1.496       .  S
C814        C815   1.407       .  A
C815        C816   1.410   1_556  A
C815        C820   1.452       .  S
C816        C817   1.424       .  A
C816        C832   1.452       .  S
C817        C818   1.424       .  A
C818        C821   1.451       .  S
C819        C822   1.408       .  A
C819        C826   1.409       .  A
C820        N837   1.157       .  T
C821        N839   1.157       .  T
C822        C823   1.410       .  A
C822        C827   1.452       .  S
C823        C824   1.423       .  A
C823        C829   1.453       .  S
C824        C825   1.421       .  A
C825        C826   1.411       .  A
C825        C828   1.450       .  S
C826        C830   1.452       .  S
C827        N834   1.157       .  T
C828        N835   1.157       .  T
C829        N833   1.158       .  T
C830        N836   1.157       .  T
C831        N840   1.157       .  T
C832        N838   1.158       .  T
C841        C842   1.408       .  A
C841        C846   1.411       .  A
C841        C859   1.452       .  S
C842        C847   1.496       .  S
C842        C843   1.407       .  A
C843        C844   1.410       .  A
C843        C848   1.452       .  S
C844        C845   1.424       .  A
C844        C860   1.452       .  S
C845        C846   1.422       .  A
C846        C849   1.450       .  S
C847        C850   1.408       .  A
C847        C854   1.410       .  A
C848        N865   1.157       .  T
C849        N867   1.157       .  T
C850        C851   1.412       .  A
C850        C855   1.451       .  S
C851        C852   1.419       .  A
C851        C857   1.448       .  S
C852        C853   1.420       .  A
C853        C854   1.409       .  A
C853        C856   1.452       .  S
C854        C858   1.453       .  S
C855        N862   1.157       .  T
C856        N863   1.157       .  T
C857        N861   1.157       .  T
C858        N864   1.157       .  T
C859        N868   1.157       .  T
C860        N866   1.158       .  T
C869        C870   1.412       .  A
C869        C874   1.412       .  A
C869        C887   1.451       .  S
C870        C875   1.503       .  S
C870        C871   1.412       .  A
C871        C872   1.414       .  A
C871        C876   1.450       .  S
C872        C873   1.414       .  A
C872        C888   1.450       .  S
C873        C874   1.416       .  A
C874        C877   1.451       .  S
C875        C878   1.413       .  A
C875        C882   1.412       .  A
C876        N893   1.157       .  T
C877        N895   1.157       .  T
C878        C879   1.416       .  A
C878        C883   1.450       .  S
C879        C880   1.414       .  A
C879        C885   1.450       .  S
C880        C881   1.414       .  A
C881        C882   1.411       .  A
C881        C884   1.451       .  S
C882        C886   1.452       .  S
C883        N890   1.157       .  T
C884        N891   1.157       .  T
C885        N889   1.157       .  T
C886        N892   1.157       .  T
C887        N896   1.157       .  T
C888        N894   1.157       .  T
C897        C898   1.414       .  A
C897        C902   1.418       .  A
C897        C915   1.450       .  S
C898        C903   1.510       .  S
C898        C899   1.411       .  A
C899        C900   1.414       .  A
C899        C904   1.452       .  S
C900        C901   1.422       .  A
C900        C916   1.452       .  S
C901        C902   1.418       .  A
C902        C905   1.450       .  S
C903        C906   1.413       .  A
C903        C910   1.413       .  A
C904        N921   1.157       .  T
C905        N923   1.157       .  T
C906        C907   1.418   1_554  A
C906        C911   1.450       .  S
C907        C908   1.417       .  A
C907        C913   1.450       .  S
C908        C909   1.417       .  A
C909        C910   1.415   1_556  A
C909        C912   1.451       .  S
C910        C914   1.452       .  S
C911        N918   1.157       .  T
C912        N919   1.157       .  T
C913        N917   1.157       .  T
C914        N920   1.157       .  T
C915        N924   1.157       .  T
C916        N922   1.157       .  T
C925        C926   1.410       .  A
C925        C930   1.411       .  A
C925        C943   1.451       .  S
C926        C931   1.500   1_455  S
C926        C927   1.413       .  A
C927        C928   1.415       .  A
C927        C932   1.450       .  S
C928        C929   1.413       .  A
C928        C944   1.450       .  S
C929        C930   1.415       .  A
C930        C933   1.452       .  S
C931        C934   1.410       .  A
C931        C938   1.409       .  A
C932        N949   1.157   1_455  T
C933        N951   1.157       .  T
C934        C935   1.413       .  A
C934        C939   1.451       .  S
C935        C936   1.420       .  A
C935        C941   1.451       .  S
C936        C937   1.420       .  A
C937        C938   1.413       .  A
C937        C940   1.451       .  S
C938        C942   1.451       .  S
C939        N946   1.157   1_655  T
C940        N947   1.158       .  T
C941        N945   1.157       .  T
C942        N948   1.157       .  T
C943        N952   1.157       .  T
C944        N950   1.157       .  T
C953        C954   1.409       .  A
C953        C958   1.413       .  A
C953        C971   1.451       .  S
C954        C959   1.505       .  S
C954        C955   1.413       .  A
C955        C956   1.416       .  A
C955        C960   1.450       .  S
C956        C957   1.415       .  A
C956        C972   1.450       .  S
C957        C958   1.420       .  A
C958        C961   1.452       .  S
C959        C962   1.413       .  A
C959        C966   1.411       .  A
C960        N977   1.157       .  T
C961        N979   1.157       .  T
C962        C963   1.416       .  A
C962        C967   1.450       .  S
C963        C964   1.413       .  A
C963        C969   1.450       .  S
C964        C965   1.416       .  A
C965        C966   1.413       .  A
C965        C968   1.451       .  S
C966        C970   1.451       .  S
C967        N974   1.157       .  T
C968        N975   1.157       .  T
C969        N973   1.157       .  T
C970        N976   1.157       .  T
C971        N980   1.157       .  T
C972        N978   1.157       .  T
C981        C982   1.409   1_545  A
C981        C986   1.414       .  A
C981        C999   1.450       .  S
C982        C987   1.499       .  S
C982        C983   1.408       .  A
C983        C984   1.410       .  A
C983        C988   1.452       .  S
C984        C985   1.422       .  A
C984       C1000   1.452       .  S
C985        C986   1.419   1_565  A
C986        C989   1.450       .  S
C987        C990   1.407   1_565  A
C987        C994   1.406       .  A
C988       N1005   1.157       .  T
C989       N1007   1.157       .  T
C990        C991   1.412       .  A
C990        C995   1.453       .  S
C991        C992   1.427   1_545  A
C991        C997   1.452       .  S
C992        C993   1.427       .  A
C993        C994   1.414       .  A
C993        C996   1.451       .  S
C994        C998   1.451       .  S
C995       N1002   1.157       .  T
C996       N1003   1.158       .  T
C997       N1001   1.158       .  T
C998       N1004   1.157       .  T
C999       N1008   1.157       .  T
C1000      N1006   1.157       .  T
C1009      C1010   1.411   1_565  A
C1009      C1014   1.409       .  A
C1009      C1027   1.452       .  S
C1010      C1015   1.500       .  S
C1010      C1011   1.414       .  A
C1011      C1012   1.414       .  A
C1011      C1016   1.450       .  S
C1012      C1013   1.413       .  A
C1012      C1028   1.450       .  S
C1013      C1014   1.415   1_545  A
C1014      C1017   1.452       .  S
C1015      C1018   1.414   1_545  A
C1015      C1022   1.412       .  A
C1016      N1033   1.157       .  T
C1017      N1035   1.157       .  T
C1018      C1019   1.413       .  A
C1018      C1023   1.450       .  S
C1019      C1020   1.412   1_565  A
C1019      C1025   1.451       .  S
C1020      C1021   1.414       .  A
C1021      C1022   1.410       .  A
C1021      C1024   1.452       .  S
C1022      C1026   1.451       .  S
C1023      N1030   1.157       .  T
C1024      N1031   1.157       .  T
C1025      N1029   1.157       .  T
C1026      N1032   1.157       .  T
C1027      N1036   1.157       .  T
C1028      N1034   1.157       .  T
C1037      C1038   1.409       .  A
C1037      C1042   1.410       .  A
C1037      C1055   1.451       .  S
C1038      C1043   1.497       .  S
C1038      C1039   1.410       .  A
C1039      C1040   1.412       .  A
C1039      C1044   1.451       .  S
C1040      C1041   1.416       .  A
C1040      C1056   1.451   1_554  S
C1041      C1042   1.418       .  A
C1042      C1045   1.452   1_545  S
C1043      C1046   1.407       .  A
C1043      C1050   1.408       .  A
C1044      N1061   1.157   1_554  T
C1045      N1063   1.157       .  T
C1046      C1047   1.412       .  A
C1046      C1051   1.452       .  S
C1047      C1048   1.424       .  A
C1047      C1053   1.450       .  S
C1048      C1049   1.420       .  A
C1049      C1050   1.412       .  A
C1049      C1052   1.449       .  S
C1050      C1054   1.452       .  S
C1051      N1058   1.157       .  T
C1052      N1059   1.157       .  T
C1053      N1057   1.157       .  T
C1054      N1060   1.157       .  T
C1055      N1064   1.157       .  T
C1056      N1062   1.158       .  T
C1065      C1066   1.408       .  A
C1065      C1070   1.414       .  A
C1065      C1083   1.451       .  S
C1066      C1071   1.499       .  S
C1066      C1067   1.408       .  A
C1067      C1068   1.411       .  A
C1067      C1072   1.452       .  S
C1068      C1069   1.424       .  A
C1068      C1084   1.452       .  S
C1069      C1070   1.423       .  A
C1070      C1073   1.450       .  S
C1071      C1074   1.407       .  A
C1071      C1078   1.407       .  A
C1072      N1089   1.157       .  T
C1073      N1091   1.157       .  T
C1074      C1075   1.415       .  A
C1074      C1079   1.451       .  S
C1075      C1076   1.425       .  A
C1075      C1081   1.451       .  S
C1076      C1077   1.426       .  A
C1077      C1078   1.411       .  A
C1077      C1080   1.452       .  S
C1078      C1082   1.453       .  S
C1079      N1086   1.157       .  T
C1080      N1087   1.158       .  T
C1081      N1085   1.157       .  T
C1082      N1088   1.157       .  T
C1083      N1092   1.157       .  T
C1084      N1090   1.158       .  T
C1093      C1094   1.405       .  A
C1093      C1098   1.412       .  A
C1093      C1111   1.452       .  S
C1094      C1099   1.497       .  S
C1094      C1095   1.407       .  A
C1095      C1096   1.413       .  A
C1095      C1100   1.453       .  S
C1096      C1097   1.428       .  A
C1096      C1112   1.451       .  S
C1097      C1098   1.427       .  A
C1098      C1101   1.451       .  S
C1099      C1102   1.408       .  A
C1099      C1106   1.407       .  A
C1100      N1117   1.157       .  T
C1101      N1119   1.157       .  T
C1102      C1103   1.411   1_554  A
C1102      C1107   1.452       .  S
C1103      C1104   1.424       .  A
C1103      C1109   1.452       .  S
C1104      C1105   1.422       .  A
C1105      C1106   1.413   1_556  A
C1105      C1108   1.450       .  S
C1106      C1110   1.451       .  S
C1107      N1114   1.157       .  T
C1108      N1115   1.157       .  T
C1109      N1113   1.158       .  T
C1110      N1116   1.157       .  T
C1111      N1120   1.157       .  T
C1112      N1118   1.158       .  T
C1121      C1122   1.408       .  A
C1121      C1126   1.407       .  A
C1121      C1139   1.451       .  S
C1122      C1127   1.493       .  S
C1122      C1123   1.411       .  A
C1123      C1124   1.412       .  A
C1123      C1128   1.450       .  S
C1124      C1125   1.414       .  A
C1124      C1140   1.450       .  S
C1125      C1126   1.417       .  A
C1126      C1129   1.453       .  S
C1127      C1130   1.409       .  A
C1127      C1134   1.411       .  A
C1128      N1145   1.157       .  T
C1129      N1147   1.158       .  T
C1130      C1131   1.407       .  A
C1130      C1135   1.452       .  S
C1131      C1132   1.416       .  A
C1131      C1137   1.453       .  S
C1132      C1133   1.414       .  A
C1133      C1134   1.413       .  A
C1133      C1136   1.450   1_556  S
C1134      C1138   1.450       .  S
C1135      N1142   1.157       .  T
C1136      N1143   1.157   1_565  T
C1137      N1141   1.157       .  T
C1138      N1144   1.157   1_556  T
C1139      N1148   1.157   1_556  T
C1140      N1146   1.157       .  T
C1149      C1150   1.410       .  A
C1149      C1154   1.410       .  A
C1149      C1167   1.452       .  S
C1150      C1155   1.499       .  S
C1150      C1151   1.411       .  A
C1151      C1152   1.414       .  A
C1151      C1156   1.449       .  S
C1152      C1153   1.413       .  A
C1152      C1168   1.450       .  S
C1153      C1154   1.418       .  A
C1154      C1157   1.452       .  S
C1155      C1158   1.409       .  A
C1155      C1162   1.407       .  A
C1156      N1173   1.157       .  T
C1157      N1175   1.157       .  T
C1158      C1159   1.414   1_556  A
C1158      C1163   1.451       .  S
C1159      C1160   1.421       .  A
C1159      C1165   1.451       .  S
C1160      C1161   1.423       .  A
C1161      C1162   1.411   1_554  A
C1161      C1164   1.451       .  S
C1162      C1166   1.452       .  S
C1163      N1170   1.157       .  T
C1164      N1171   1.158       .  T
C1165      N1169   1.158       .  T
C1166      N1172   1.157       .  T
C1167      N1176   1.157       .  T
C1168      N1174   1.157       .  T
C1177      C1178   1.409       .  A
C1177      C1182   1.410       .  A
C1177      C1195   1.451       .  S
C1178      C1183   1.498       .  S
C1178      C1179   1.410       .  A
C1179      C1180   1.414       .  A
C1179      C1184   1.450       .  S
C1180      C1181   1.417       .  A
C1180      C1196   1.451       .  S
C1181      C1182   1.418       .  A
C1182      C1185   1.451       .  S
C1183      C1186   1.410       .  A
C1183      C1190   1.412       .  A
C1184      N1201   1.157       .  T
C1185      N1203   1.157       .  T
C1186      C1187   1.409       .  A
C1186      C1191   1.452       .  S
C1187      C1188   1.414       .  A
C1187      C1193   1.451       .  S
C1188      C1189   1.413       .  A
C1189      C1190   1.415       .  A
C1189      C1192   1.450       .  S
C1190      C1194   1.449       .  S
C1191      N1198   1.157       .  T
C1192      N1199   1.157       .  T
C1193      N1197   1.157       .  T
C1194      N1200   1.157       .  T
C1195      N1204   1.157       .  T
C1196      N1202   1.157       .  T
C1205      C1206   1.410       .  A
C1205      C1210   1.413       .  A
C1205      C1223   1.451       .  S
C1206      C1211   1.503       .  S
C1206      C1207   1.412       .  A
C1207      C1208   1.414       .  A
C1207      C1212   1.450       .  S
C1208      C1209   1.415       .  A
C1208      C1224   1.451       .  S
C1209      C1210   1.419       .  A
C1210      C1213   1.452       .  S
C1211      C1214   1.411       .  A
C1211      C1218   1.410       .  A
C1212      N1229   1.157       .  T
C1213      N1231   1.158       .  T
C1214      C1215   1.415       .  A
C1214      C1219   1.450       .  S
C1215      C1216   1.418       .  A
C1215      C1221   1.450       .  S
C1216      C1217   1.419       .  A
C1217      C1218   1.413       .  A
C1217      C1220   1.451       .  S
C1218      C1222   1.451       .  S
C1219      N1226   1.157       .  T
C1220      N1227   1.157       .  T
C1221      N1225   1.157       .  T
C1222      N1228   1.157       .  T
C1223      N1232   1.157       .  T
C1224      N1230   1.157       .  T
C1233      C1234   1.408       .  A
C1233      C1238   1.407       .  A
C1233      C1251   1.451       .  S
C1234      C1239   1.490   1_455  S
C1234      C1235   1.409       .  A
C1235      C1236   1.410       .  A
C1235      C1240   1.451       .  S
C1236      C1237   1.413       .  A
C1236      C1252   1.448       .  S
C1237      C1238   1.417       .  A
C1238      C1241   1.452       .  S
C1239      C1242   1.410       .  A
C1239      C1246   1.409       .  A
C1240      N1257   1.157   1_455  T
C1241      N1259   1.157       .  T
C1242      C1243   1.411       .  A
C1242      C1247   1.450   1_655  S
C1243      C1244   1.415       .  A
C1243      C1249   1.450       .  S
C1244      C1245   1.416       .  A
C1245      C1246   1.407       .  A
C1245      C1248   1.452       .  S
C1246      C1250   1.452       .  S
C1247      N1254   1.157       .  T
C1248      N1255   1.157       .  T
C1249      N1253   1.157       .  T
C1250      N1256   1.157       .  T
C1251      N1260   1.157       .  T
C1252      N1258   1.156       .  T
