geometry optimzed in LAMMPS
_audit_creation_date              2020-12-01 
_audit_creation_method            'lammps2cif' 
_symmetry_space_group_name_H-M    'P1' 
_symmetry_Int_Tables_number       1 
_symmetry_cell_setting            triclinic 
loop_ 
_symmetry_equiv_pos_as_xyz 
  x,y,z 
_cell_length_a                    47.29850456 
_cell_length_b                    47.28730973246089 
_cell_length_c                    78.64149947347943 
_cell_angle_alpha                 89.97952906153773 
_cell_angle_beta                  89.94151727590058 
_cell_angle_gamma                 90.05447441921979 
loop_ 
_atom_site_label 
_atom_site_type_symbol 
_atom_site_fract_x 
_atom_site_fract_y 
_atom_site_fract_z 
_atom_site_charge 
In1        In  0.67816985  0.64415515  0.91089926     1.36900
C2          C  0.63416469  0.61694928  0.89754594     0.77600
O3          O  0.65016495  0.68148209  0.90681537    -0.60900
O4          O  0.69048571  0.68165816  0.89496987    -0.51800
C5          C  0.69030659  0.65208210  0.94361862     0.70200
O6          O  0.67557031  0.63159965  0.93847786    -0.46600
C7          C  0.72211328  0.61189990  0.90303722     0.74900
O8          O  0.63320198  0.62910768  0.91182749    -0.58500
O9          O  0.71904573  0.63648148  0.89700477    -0.48600
O10         O  0.65797546  0.61824268  0.89040888    -0.54900
C11         C  0.66731137  0.69437245  0.89727794     0.85100
O12         O  0.69697375  0.66936275  0.93212552    -0.56800
O13         O  0.70278557  0.60413033  0.91303920    -0.60100
In14       In  0.29811921  0.81343230  0.90791239     1.36900
C15         C  0.34400597  0.83927136  0.89622404     0.77600
O16         O  0.32490850  0.77434625  0.90719135    -0.60900
O17         O  0.28731661  0.77460504  0.89245195    -0.51800
C18         C  0.27984773  0.80722709  0.93980156     0.70200
O19         O  0.30325094  0.81857382  0.93619877    -0.46600
C20         C  0.26044364  0.85134868  0.89749653     0.74900
O21         O  0.34076231  0.83350106  0.91178928    -0.58500
O22         O  0.26189791  0.82687144  0.89110833    -0.48600
O23         O  0.32378658  0.83190499  0.88678389    -0.54900
C24         C  0.30943864  0.76149276  0.89670403     0.85100
O25         O  0.26656598  0.79772414  0.92713668    -0.56800
O26         O  0.27815314  0.85616779  0.90910008    -0.60100
In27       In  0.57646535  0.92395993  0.83500433     1.36900
C28         C  0.60159717  0.87673797  0.84487840     0.77600
O29         O  0.61484654  0.95150468  0.83323893    -0.60900
O30         O  0.58893667  0.95520473  0.85508751    -0.51800
C31         C  0.57046478  0.93894604  0.80276990     0.70200
O32         O  0.58778948  0.92028797  0.80747604    -0.46600
C33         C  0.52395516  0.91421572  0.84572444     0.74900
O34         O  0.59306511  0.88044960  0.82984652    -0.58500
O35         O  0.53547970  0.93820926  0.84690266    -0.48600
O36         O  0.59817820  0.89756493  0.85465334    -0.54900
C37         C  0.61099096  0.96316837  0.84743361     0.85100
O38         O  0.55568008  0.94944358  0.81451423    -0.56800
O39         O  0.53924284  0.89570266  0.83884821    -0.60100
In40       In  0.40116065  0.52801763  0.83810489     1.36900
C41         C  0.37682067  0.57490323  0.84988082     0.77600
O42         O  0.36099334  0.50349588  0.83952813    -0.60900
O43         O  0.39514383  0.49068769  0.85542873    -0.51800
C44         C  0.40258409  0.51141923  0.80587310     0.70200
O45         O  0.38640231  0.53069999  0.81112895    -0.46600
C46         C  0.45352248  0.54082368  0.84753059     0.74900
O47         O  0.38686200  0.57307628  0.83508417    -0.58500
O48         O  0.43937212  0.52157133  0.85468236    -0.48600
O49         O  0.37839864  0.55241446  0.85836242    -0.54900
C50         C  0.36986287  0.48679948  0.85082459     0.85100
O51         O  0.41831631  0.50078178  0.81713027    -0.56800
O52         O  0.44145474  0.55220371  0.83502428    -0.60100
In53       In  0.07973631  0.03864936  0.85520950     1.36900
C54         C  0.10464333  0.08606083  0.86511426     0.77600
O55         O  0.03838672  0.06127490  0.85325968    -0.60900
O56         O  0.04414484  0.03315383  0.87396330    -0.51800
C57         C  0.06957041  0.01995410  0.82410223     0.70200
O58         O  0.08327661  0.04236270  0.82697708    -0.46600
C59         C  0.11801815  0.00007510  0.86417740     0.74900
O60         O  0.10146067  0.07976274  0.84965022    -0.58500
O61         O  0.09381573  0.00132911  0.87096013    -0.48600
O62         O  0.09534944  0.06784173  0.87537645    -0.54900
C63         C  0.02821070  0.05088064  0.86669883     0.85100
O64         O  0.06024918  0.00764880  0.83721585    -0.56800
O65         O  0.12225918  0.01854076  0.85295044    -0.60100
In66       In  0.88636227  0.41804142  0.85159287     1.36900
C67         C  0.85797387  0.37263657  0.86233882     0.77600
O68         O  0.92458330  0.38984167  0.85220058    -0.60900
O69         O  0.92616668  0.42895419  0.86540206    -0.51800
C70         C  0.89470474  0.43234909  0.81909623     0.70200
O71         O  0.87906508  0.41203744  0.82350034    -0.46600
C72         C  0.85556003  0.46005181  0.86472685     0.74900
O73         O  0.85774515  0.38060168  0.84705255    -0.58500
O74         O  0.87831941  0.45171092  0.87125724    -0.48600
O75         O  0.87248280  0.38809372  0.87199822    -0.54900
C76         C  0.93863749  0.40628557  0.86159580     0.85100
O77         O  0.90654372  0.44482226  0.83133016    -0.56800
O78         O  0.84860892  0.44700178  0.85142445    -0.60100
In79       In  0.18095529  0.32872560  0.91417577     1.36900
C80         C  0.13178855  0.35061803  0.90395612     0.77600
O81         O  0.20022029  0.37009978  0.90661604    -0.60900
O82         O  0.21960714  0.33245355  0.89781033    -0.51800
C83         C  0.20046164  0.32755433  0.94583808     0.70200
O84         O  0.17563645  0.33543641  0.94235472    -0.46600
C85         C  0.17118676  0.27475613  0.90756613     0.74900
O86         O  0.14520224  0.36006676  0.91661472    -0.58500
O87         O  0.18379530  0.29100218  0.89731536    -0.48600
O88         O  0.14374745  0.33020850  0.89670714    -0.54900
C89         C  0.22027106  0.35905547  0.89845139     0.85100
O90         O  0.21497911  0.32021785  0.93316710    -0.56800
O91         O  0.16431934  0.28606633  0.92150960    -0.60100
In92       In  0.78510591  0.13253445  0.91732856     1.36900
C93         C  0.83597638  0.11347753  0.90821242     0.77600
O94         O  0.76883859  0.08867830  0.91218787    -0.60900
O95         O  0.74726916  0.12311326  0.90097536    -0.51800
C96         C  0.76631558  0.13589898  0.94908567     0.70200
O97         O  0.78944777  0.12428546  0.94528312    -0.46600
C98         C  0.79242654  0.18642175  0.90883709     0.74900
O99         O  0.82576139  0.10945409  0.92283273    -0.58500
O100        O  0.77985092  0.16896527  0.89936527    -0.48600
O101        O  0.82013950  0.12728828  0.89842171    -0.54900
C102        C  0.74886240  0.09671704  0.90281840     0.85100
O103        O  0.75270071  0.14568299  0.93663110    -0.56800
O104        O  0.80040770  0.17636678  0.92288710    -0.60100
In105      In  0.67627148  0.81937746  0.41921389     1.36900
C106        C  0.63132112  0.84616740  0.40700318     0.77600
O107        O  0.69970548  0.86028208  0.41743636    -0.60900
O108        O  0.71475564  0.82503895  0.40319827    -0.51800
C109        C  0.69420705  0.81451446  0.45125607     0.70200
O110        O  0.67245291  0.82836156  0.44722432    -0.46600
C111        C  0.66167207  0.76843396  0.40819490     0.74900
O112        O  0.63538676  0.84297425  0.42274587    -0.58500
O113        O  0.68283121  0.78164936  0.40256443    -0.48600
O114        O  0.65050976  0.83635779  0.39761770    -0.54900
C115        C  0.71782498  0.85063127  0.40722376     0.85100
O116        O  0.70598519  0.80210861  0.43896333    -0.56800
O117        O  0.64916473  0.78049350  0.42036506    -0.60100
In118      In  0.56122216  0.54081958  0.34851752     1.36900
C119        C  0.58279630  0.58973243  0.35814132     0.77600
O120        O  0.51684227  0.55620361  0.34717495    -0.60900
O121        O  0.53006164  0.53588970  0.36989812    -0.51800
C122        C  0.56071978  0.52589076  0.31606140     0.70200
O123        O  0.57626461  0.54542623  0.32167408    -0.46600
C124        C  0.59431124  0.49914585  0.35823673     0.74900
O125        O  0.56966538  0.58697115  0.34428951    -0.58500
O126        O  0.56772231  0.49740889  0.35908617    -0.48600
O127        O  0.58507812  0.56752575  0.36687828    -0.54900
C128        C  0.51063192  0.54864746  0.36207781     0.85100
O129        O  0.54452259  0.51486237  0.32693436    -0.56800
O130        O  0.60381811  0.52237583  0.35285522    -0.60100
In131      In  0.27821007  0.65140792  0.41328719     1.36900
C132        C  0.32549233  0.62664701  0.40281615     0.77600
O133        O  0.25703231  0.60929278  0.41129942    -0.60900
O134        O  0.23764789  0.64416093  0.39888860    -0.51800
C135        C  0.26080682  0.65571839  0.44545180     0.70200
O136        O  0.28050656  0.63955596  0.44080323    -0.46600
C137        C  0.29307541  0.70208957  0.40187921     0.74900
O138        O  0.32144742  0.63383665  0.41805534    -0.58500
O139        O  0.27276707  0.68835136  0.39552484    -0.48600
O140        O  0.30504040  0.63131956  0.39292823    -0.54900
C141        C  0.23656767  0.61818031  0.40256936     0.85100
O142        O  0.25077939  0.67088293  0.43372383    -0.56800
O143        O  0.30428137  0.69064345  0.41465349    -0.60100
In144      In  0.39876314  0.93216000  0.34753708     1.36900
C145        C  0.37655631  0.88320798  0.35717020     0.77600
O146        O  0.44307568  0.91573141  0.34523410    -0.60900
O147        O  0.43200873  0.93845822  0.36750307    -0.51800
C148        C  0.40232975  0.94779657  0.31493492     0.70200
O149        O  0.39611079  0.92291067  0.31939402    -0.46600
C150        C  0.36320518  0.97116791  0.35933324     0.74900
O151        O  0.37227337  0.89352021  0.34256747    -0.58500
O152        O  0.38921254  0.97575754  0.35719992    -0.48600
O153        O  0.39173655  0.89810286  0.36680039    -0.54900
C154        C  0.45054770  0.92437393  0.35971528     0.85100
O155        O  0.40741102  0.96418802  0.32716157    -0.56800
O156        O  0.35576612  0.94627259  0.35592789    -0.60100
In157      In  0.17453434  0.14468968  0.40794529     1.36900
C158        C  0.12731751  0.11993611  0.39710231     0.77600
O159        O  0.14892868  0.18445524  0.40814013    -0.60900
O160        O  0.18267555  0.18124766  0.39047861    -0.51800
C161        C  0.19230531  0.15255983  0.43983579     0.70200
O162        O  0.17215219  0.13620730  0.43614513    -0.46600
C163        C  0.21610602  0.11141286  0.39706907     0.74900
O164        O  0.13255968  0.12346262  0.41270041    -0.58500
O165        O  0.21480606  0.13734559  0.39351130    -0.48600
O166        O  0.14667119  0.12809138  0.38720860    -0.54900
C167        C  0.16253167  0.19590581  0.39616827     0.85100
O168        O  0.20243409  0.16571032  0.42732362    -0.56800
O169        O  0.19568644  0.10243910  0.40584527    -0.60100
In170      In  0.06971398  0.43326745  0.34622999     1.36900
C171        C  0.09323792  0.38389730  0.35370736     0.77600
O172        O  0.10937796  0.45501950  0.35466955    -0.60900
O173        O  0.07029790  0.47622372  0.35850401    -0.51800
C174        C  0.06866048  0.44965253  0.31399935     0.70200
O175        O  0.08849358  0.43491107  0.32000604    -0.46600
C176        C  0.01846397  0.42026182  0.35736611     0.74900
O177        O  0.08320366  0.38922053  0.33921998    -0.58500
O178        O  0.03654915  0.43227027  0.36664375    -0.48600
O179        O  0.09173703  0.40394067  0.36419554    -0.54900
C180        C  0.09676279  0.47649637  0.36033325     0.85100
O181        O  0.04990746  0.45657767  0.32458234    -0.56800
O182        O  0.02641957  0.41541561  0.34238074    -0.60100
In183      In  0.88741953  0.03171947  0.34780012     1.36900
C184        C  0.86063488  0.07959648  0.35526432     0.77600
O185        O  0.84677983  0.00801311  0.34967693    -0.60900
O186        O  0.88061411  0.99502272  0.36548461    -0.51800
C187        C  0.89771200  0.00989651  0.31739008     0.70200
O188        O  0.88043984  0.02983502  0.31973361    -0.46600
C189        C  0.93818848  0.04790786  0.35765587     0.74900
O190        O  0.86181074  0.06988652  0.34035850    -0.58500
O191        O  0.92276896  0.03200294  0.36662548    -0.48600
O192        O  0.87265267  0.06437148  0.36620849    -0.54900
C193        C  0.85539864  0.99115330  0.36090235     0.85100
O194        O  0.90998750  0.00135909  0.33065618    -0.56800
O195        O  0.92775443  0.05516442  0.34355602    -0.60100
In196      In  0.77984008  0.32357422  0.40240599     1.36900
C197        C  0.82859518  0.34649176  0.39319480     0.77600
O198        O  0.79962526  0.28152648  0.40733066    -0.60900
O199        O  0.77883092  0.28782100  0.38375647    -0.51800
C200        C  0.76225169  0.32241398  0.43432841     0.70200
O201        O  0.77994717  0.34030649  0.42899596    -0.46600
C202        C  0.73817247  0.35409304  0.38946027     0.74900
O203        O  0.82184631  0.34294020  0.40857843    -0.58500
O204        O  0.73698758  0.32749929  0.39025577    -0.48600
O205        O  0.81020345  0.33868861  0.38259948    -0.54900
C206        C  0.79298599  0.27136527  0.39307381     0.85100
O207        O  0.75378334  0.30493940  0.42336320    -0.56800
O208        O  0.76069449  0.36480152  0.39500338    -0.60100
In209      In  0.78748480  0.63926564  0.09414766     1.36900
C210        C  0.83479003  0.61440268  0.10512467     0.77600
O211        O  0.80982306  0.68063809  0.08983829    -0.60900
O212        O  0.78401430  0.67629860  0.11174300    -0.51800
C213        C  0.76897785  0.64537146  0.06244246     0.70200
O214        O  0.79216137  0.63346711  0.06587220    -0.46600
C215        C  0.74584740  0.60753658  0.10667114     0.74900
O216        O  0.82678814  0.61284217  0.08984591    -0.58500
O217        O  0.74814393  0.63353951  0.10987700    -0.48600
O218        O  0.81817688  0.62794574  0.11460869    -0.54900
C219        C  0.80083470  0.69167219  0.10339975     0.85100
O220        O  0.75567321  0.65438673  0.07521997    -0.56800
O221        O  0.76512409  0.59767591  0.09731912    -0.60100
In222      In  0.07477729  0.53676708  0.16195106     1.36900
C223        C  0.10045517  0.58378113  0.15171099     0.77600
O224        O  0.11671200  0.51476543  0.16121240    -0.60900
O225        O  0.08378723  0.49819234  0.14599272    -0.51800
C226        C  0.06665833  0.51817903  0.19328157     0.70200
O227        O  0.07832892  0.54163682  0.19017874    -0.46600
C228        C  0.02269871  0.55014381  0.15218914     0.74900
O229        O  0.10177399  0.57511138  0.16685824    -0.58500
O230        O  0.03806422  0.53296418  0.14408587    -0.48600
O231        O  0.08651432  0.56800614  0.14192123    -0.54900
C232        C  0.10901673  0.49578643  0.15099281     0.85100
O233        O  0.05821297  0.50484081  0.18036614    -0.56800
O234        O  0.03374433  0.55971847  0.16559713    -0.60100
In235      In  0.89800371  0.92056109  0.16576716     1.36900
C236        C  0.87239191  0.87461417  0.15361824     0.77600
O237        O  0.85806376  0.94600909  0.16625005    -0.60900
O238        O  0.88830164  0.95552603  0.14725959    -0.51800
C239        C  0.90416074  0.93254682  0.19864231     0.70200
O240        O  0.89036980  0.91144695  0.19346231    -0.46600
C241        C  0.95063051  0.91158277  0.15521861     0.74900
O242        O  0.87250078  0.88086518  0.16921272    -0.58500
O243        O  0.93917428  0.93563340  0.15502498    -0.48600
O244        O  0.88491911  0.89234172  0.14429366    -0.54900
C245        C  0.86455205  0.96106251  0.15365033     0.85100
O246        O  0.91579231  0.94675248  0.18704079    -0.56800
O247        O  0.93552097  0.89245006  0.16171921    -0.60100
In248      In  0.17781336  0.81980331  0.08972494     1.36900
C249        C  0.13155478  0.84707128  0.10028091     0.77600
O250        O  0.15618135  0.77759587  0.08864701    -0.60900
O251        O  0.18057241  0.78747290  0.11044353    -0.51800
C252        C  0.19436178  0.81256850  0.05756046     0.70200
O253        O  0.17654014  0.83114792  0.06180099    -0.46600
C254        C  0.22250448  0.84961538  0.09962446     0.74900
O255        O  0.13512098  0.83982145  0.08497663    -0.58500
O256        O  0.22065395  0.82331167  0.10188560    -0.48600
O257        O  0.15181443  0.84063732  0.10989919    -0.54900
C258        C  0.16492230  0.76975937  0.10305746     0.85100
O259        O  0.20239467  0.79702668  0.06963002    -0.56800
O260        O  0.20143293  0.86056242  0.09239261    -0.60100
In261      In  0.28995697  0.31864776  0.09829100     1.36900
C262        C  0.33859610  0.33811224  0.11078416     0.77600
O263        O  0.26934862  0.36053739  0.10305053    -0.60900
O264        O  0.24845588  0.32372962  0.11199290    -0.51800
C265        C  0.27442639  0.31934319  0.06587382     0.70200
O266        O  0.29273650  0.33602863  0.07180252    -0.46600
C267        C  0.29969473  0.26499598  0.10597104     0.74900
O268        O  0.33296273  0.33823666  0.09511080    -0.58500
O269        O  0.28317677  0.28039560  0.11452557    -0.48600
O270        O  0.31895513  0.32862548  0.11997268    -0.54900
C271        C  0.24807042  0.35023414  0.11041121     0.85100
O272        O  0.26489566  0.30175861  0.07647317    -0.56800
O273        O  0.31029270  0.27684637  0.09306625    -0.60100
In274      In  0.39129238  0.03076495  0.16060775     1.36900
C275        C  0.36312021  0.07574601  0.14954816     0.77600
O276        O  0.42872915  0.05905517  0.16238612    -0.60900
O277        O  0.43344833  0.02085489  0.14850828    -0.51800
C278        C  0.39662436  0.01556699  0.19309907     0.70200
O279        O  0.39223658  0.04073114  0.18847491    -0.46600
C280        C  0.36054117  0.99096260  0.14561841     0.74900
O281        O  0.35952930  0.06561275  0.16422544    -0.58500
O282        O  0.38501502  0.99754350  0.14053528    -0.48600
O283        O  0.38029808  0.06218596  0.14043647    -0.54900
C284        C  0.44440241  0.04389446  0.15324750     0.85100
O285        O  0.39822203  0.99829698  0.18098067    -0.56800
O286        O  0.35218246  0.00461523  0.15844659    -0.60100
In287      In  0.57665272  0.42374367  0.16687061     1.36900
C288        C  0.60233447  0.37511696  0.15927362     0.77600
O289        O  0.53494873  0.40213984  0.17128326    -0.60900
O290        O  0.54094438  0.42416013  0.14809682    -0.51800
C291        C  0.57063342  0.44530882  0.19779115     0.70200
O292        O  0.58491606  0.42334583  0.19485662    -0.46600
C293        C  0.60906569  0.46428381  0.15336484     0.74900
O294        O  0.60003691  0.38403121  0.17430163    -0.58500
O295        O  0.58354305  0.46073609  0.14928790    -0.48600
O296        O  0.59209353  0.39151354  0.14828102    -0.54900
C297        C  0.52495397  0.40873088  0.15696244     0.85100
O298        O  0.55868329  0.45580642  0.18491624    -0.56800
O299        O  0.61788582  0.44683611  0.16421679    -0.60100
In300      In  0.68117712  0.13613252  0.10205519     1.36900
C301        C  0.63359318  0.11191202  0.11196550     0.77600
O302        O  0.70356952  0.09474369  0.10396228    -0.60900
O303        O  0.72347042  0.13083880  0.11475745    -0.51800
C304        C  0.69622448  0.14141665  0.06976928     0.70200
O305        O  0.67875331  0.12304129  0.07477451    -0.46600
C306        C  0.66809020  0.18605849  0.11546303     0.74900
O307        O  0.63658788  0.12226454  0.09730012    -0.58500
O308        O  0.68329106  0.16820523  0.12309533    -0.48600
O309        O  0.65540894  0.11264824  0.12110523    -0.54900
C310        C  0.72457148  0.10461088  0.11182244     0.85100
O311        O  0.70536851  0.15756155  0.08129005    -0.56800
O312        O  0.66080811  0.17878436  0.10069433    -0.60100
In313      In  0.78657148  0.81016801  0.60402110     1.36900
C314        C  0.83418392  0.83217512  0.61594177     0.77600
O315        O  0.76805155  0.85315780  0.60650601    -0.60900
O316        O  0.74473046  0.81893650  0.61693519    -0.51800
C317        C  0.77054020  0.80727435  0.57147197     0.70200
O318        O  0.78925317  0.82415426  0.57666211    -0.46600
C319        C  0.79611705  0.75855055  0.61563959     0.74900
O320        O  0.83173032  0.82416331  0.60070359    -0.58500
O321        O  0.77864309  0.77505248  0.62261607    -0.48600
O322        O  0.81230889  0.82909655  0.62488955    -0.54900
C323        C  0.74589429  0.84517912  0.61400285     0.85100
O324        O  0.76106488  0.79103101  0.58287777    -0.56800
O325        O  0.80764715  0.76802645  0.60235061    -0.60100
In326      In  0.89594328  0.52450346  0.66661092     1.36900
C327        C  0.87048469  0.57222694  0.65733211     0.77600
O328        O  0.93381620  0.55315976  0.66700758    -0.60900
O329        O  0.93615425  0.51551278  0.65247361    -0.51800
C330        C  0.89969183  0.50453400  0.69837854     0.70200
O331        O  0.88292734  0.52398324  0.69415305    -0.46600
C332        C  0.86484217  0.48479443  0.65158486     0.74900
O333        O  0.87557402  0.56631703  0.67265531    -0.58500
O334        O  0.88924343  0.49133413  0.64650405    -0.48600
O335        O  0.87754425  0.55339721  0.64683608    -0.54900
C336        C  0.94794786  0.53831861  0.65676434     0.85100
O337        O  0.91522764  0.49592210  0.68642951    -0.56800
O338        O  0.85641894  0.49851758  0.66434173    -0.60100
In339      In  0.06758223  0.92200693  0.67345380     1.36900
C340        C  0.09144753  0.87513722  0.66172699     0.77600
O341        O  0.02946149  0.89402891  0.67415176    -0.60900
O342        O  0.02705867  0.93236911  0.66020824    -0.51800
C343        C  0.06405640  0.94183372  0.70511008     0.70200
O344        O  0.07961656  0.92123042  0.70112937    -0.46600
C345        C  0.10145895  0.95955283  0.65894311     0.74900
O346        O  0.08836603  0.87968581  0.67745649    -0.58500
O347        O  0.07603554  0.95641739  0.65451887    -0.48600
O348        O  0.08253050  0.89458813  0.65220170    -0.54900
C349        C  0.01505042  0.90960192  0.66444454     0.85100
O350        O  0.04968295  0.95175995  0.69303443    -0.56800
O351        O  0.10928600  0.94383472  0.67097373    -0.60100
In352      In  0.17472060  0.64391426  0.59882475     1.36900
C353        C  0.12605658  0.62095718  0.60826523     0.77600
O354        O  0.19437241  0.60108997  0.59959940    -0.60900
O355        O  0.21529770  0.63415913  0.61278099    -0.51800
C356        C  0.19108277  0.64982786  0.56673440     0.70200
O357        O  0.17214139  0.63257683  0.57121295    -0.46600
C358        C  0.16621558  0.69466571  0.61208858     0.74900
O359        O  0.12912644  0.63257831  0.59395626    -0.58500
O360        O  0.18068408  0.67597438  0.61949133    -0.48600
O361        O  0.14764453  0.62125184  0.61758220    -0.54900
C362        C  0.21512904  0.60837007  0.60862315     0.85100
O363        O  0.20133706  0.66429167  0.57870332    -0.56800
O364        O  0.15697260  0.68773463  0.59766468    -0.60100
In365      In  0.27872790  0.12902709  0.59212818     1.36900
C366        C  0.32594884  0.10302047  0.60160712     0.77600
O367        O  0.30721367  0.16703818  0.59239892    -0.60900
O368        O  0.27103344  0.16719317  0.60837093    -0.51800
C369        C  0.26342343  0.13835030  0.55996298     0.70200
O370        O  0.28366581  0.12249606  0.56402173    -0.46600
C371        C  0.23799908  0.09640898  0.60520007     0.74900
O372        O  0.31775405  0.10383397  0.58637382    -0.58500
O373        O  0.24223604  0.12144692  0.60997295    -0.48600
O374        O  0.30907923  0.11411967  0.61203911    -0.54900
C375        C  0.29312796  0.17984333  0.60360926     0.85100
O376        O  0.25099947  0.14973643  0.57238127    -0.56800
O377        O  0.25417777  0.08819849  0.59347626    -0.60100
In378      In  0.38743148  0.41639173  0.65508951     1.36900
C379        C  0.36331624  0.36789445  0.64600263     0.77600
O380        O  0.34662365  0.44021558  0.65598502    -0.60900
O381        O  0.37660087  0.45167841  0.63708531    -0.51800
C382        C  0.39587343  0.43496052  0.68663416     0.70200
O383        O  0.37674709  0.41741805  0.68297540    -0.46600
C384        C  0.43800855  0.40550790  0.64221129     0.74900
O385        O  0.37558700  0.37132941  0.66007520    -0.58500
O386        O  0.42436699  0.42756955  0.63843342    -0.48600
O387        O  0.36256913  0.38980933  0.63691237    -0.54900
C388        C  0.35270840  0.45627920  0.64371119     0.85100
O389        O  0.41119759  0.44216884  0.67427244    -0.56800
O390        O  0.42593232  0.38947605  0.65274694    -0.60100
In391      In  0.57254583  0.03979581  0.65376459     1.36900
C392        C  0.59730830  0.08805908  0.64464664     0.77600
O393        O  0.61316789  0.01612504  0.65612784    -0.60900
O394        O  0.58524343  0.00457541  0.63624121    -0.51800
C395        C  0.56464844  0.01805835  0.68440722     0.70200
O396        O  0.57770965  0.04104472  0.68202619    -0.46600
C397        C  0.51994652  0.05012763  0.64343495     0.74900
O398        O  0.59059866  0.08266642  0.65982500    -0.58500
O399        O  0.53646269  0.03376820  0.63556759    -0.48600
O400        O  0.59232269  0.06830668  0.63434851    -0.54900
C401        C  0.60819560  0.99968272  0.64389102     0.85100
O402        O  0.55463421  0.00689887  0.67114351    -0.56800
O403        O  0.53041232  0.06079465  0.65667509    -0.60100
In404      In  0.67658813  0.32603816  0.58723198     1.36900
C405        C  0.62628489  0.34814939  0.59411398     0.77600
O406        O  0.66553152  0.27992814  0.58555160    -0.60900
O407        O  0.67349110  0.29731162  0.60988363    -0.51800
C408        C  0.69315557  0.32306052  0.55512509     0.70200
O409        O  0.67236748  0.33785608  0.55976184    -0.46600
C410        C  0.71926860  0.35686610  0.59929427     0.74900
O411        O  0.63071257  0.33301327  0.58121271    -0.58500
O412        O  0.71686620  0.33071244  0.60207474    -0.48600
O413        O  0.64794985  0.35322899  0.60289431    -0.54900
C414        C  0.66636637  0.27593010  0.60137863     0.85100
O415        O  0.70510590  0.30941737  0.56687352    -0.56800
O416        O  0.69988085  0.36710307  0.59016854    -0.60100
C417        C  0.60905586  0.11563966  0.63920709     0.01300
C418        C  0.63103970  0.12868244  0.64851981     0.04200
C419        C  0.64187521  0.15504024  0.64326700    -0.11900
C420        C  0.63035964  0.16874507  0.62897527     0.23500
C421        C  0.60780392  0.15627838  0.62003468    -0.12500
C422        C  0.59756996  0.12953624  0.62486420     0.04900
C423        C  0.64186115  0.19625634  0.62311846     0.27300
C424        C  0.63175617  0.22162268  0.63022533    -0.13200
C425        C  0.63987684  0.24775903  0.62319028     0.05400
C426        C  0.65889822  0.24859831  0.60931374    -0.09100
C427        C  0.66994701  0.22315121  0.60270732     0.06200
C428        C  0.66130086  0.19704515  0.60954489    -0.13500
Br429      Br  0.59023694  0.17659413  0.60153059    -0.05600
Br430      Br  0.64722230  0.11017146  0.66809533     0.00100
Br431      Br  0.62282999  0.28204402  0.63173813     0.00500
Br432      Br  0.67576025  0.16217583  0.60023434    -0.03900
Br433      Br  0.56684509  0.11287479  0.61212797     0.00600
Br434      Br  0.67232536  0.17270247  0.65566111    -0.03200
Br435      Br  0.60624514  0.22034787  0.64938909    -0.04100
Br436      Br  0.69749869  0.22389368  0.58457142    -0.00100
C437        C  0.46580940  0.39862232  0.63481708     0.01300
C438        C  0.48838127  0.39061484  0.64551457     0.04200
C439        C  0.51459675  0.38302340  0.63842937    -0.11900
C440        C  0.51827365  0.38327022  0.62066075     0.23500
C441        C  0.49585871  0.39142796  0.60997006    -0.12500
C442        C  0.46961046  0.39900507  0.61701662     0.04900
C443        C  0.54563762  0.37460554  0.61316602     0.27300
C444        C  0.56790969  0.39423563  0.61190538    -0.13200
C445        C  0.59394642  0.38596145  0.60488018     0.05400
C446        C  0.59788127  0.35792432  0.59920884    -0.09100
C447        C  0.57517509  0.33849813  0.59999887     0.06200
C448        C  0.54924837  0.34677369  0.60720042    -0.13500
Br449      Br  0.50125009  0.39194770  0.58563461    -0.05600
Br450      Br  0.48383836  0.39092568  0.66992775     0.00100
Br451      Br  0.62366887  0.41355874  0.60231905     0.00500
Br452      Br  0.51892681  0.31970001  0.60966080    -0.03900
Br453      Br  0.43846595  0.40810238  0.60214575     0.00600
Br454      Br  0.54562639  0.37232602  0.65300015    -0.03200
Br455      Br  0.56281353  0.43228693  0.62023905    -0.04100
Br456      Br  0.57959725  0.30007969  0.59205473    -0.00100
C457        C  0.35369202  0.09146773  0.60680032     0.01300
C458        C  0.37815159  0.09732737  0.59701985     0.04200
C459        C  0.40485005  0.08853960  0.60281160    -0.11900
C460        C  0.40747679  0.07529743  0.61875065     0.23500
C461        C  0.38318359  0.06878767  0.62832835    -0.12500
C462        C  0.35628562  0.07632654  0.62222344     0.04900
C463        C  0.43592116  0.06864678  0.62552276     0.27300
C464        C  0.44710630  0.04131188  0.62362175    -0.13200
C465        C  0.47421850  0.03500885  0.62989039     0.05400
C466        C  0.49079187  0.05642214  0.63757599    -0.09100
C467        C  0.47932057  0.08393193  0.63951972     0.06200
C468        C  0.45181732  0.08982305  0.63369331    -0.13500
Br469      Br  0.38696585  0.04964551  0.64988705    -0.05600
Br470      Br  0.37600797  0.11942768  0.57638074     0.00100
Br471      Br  0.48740376  0.99641597  0.62881769     0.00500
Br472      Br  0.43566240  0.12700243  0.63682894    -0.03900
Br473      Br  0.32310237  0.06476798  0.63475870     0.00600
Br474      Br  0.43807945  0.09456124  0.58897792    -0.03200
Br475      Br  0.42500066  0.01259017  0.61232014    -0.04100
Br476      Br  0.50124447  0.11432851  0.64936919    -0.00100
C477        C  0.35141701  0.34033559  0.64044187     0.01300
C478        C  0.35200610  0.33264016  0.62299381     0.04200
C479        C  0.34145152  0.30621942  0.61781794    -0.11900
C480        C  0.32967480  0.28762017  0.62982216     0.23500
C481        C  0.32909910  0.29494014  0.64713357    -0.12500
C482        C  0.34021337  0.32104820  0.65252052     0.04900
C483        C  0.31955498  0.25955100  0.62420748     0.27300
C484        C  0.29168429  0.25617428  0.61828246    -0.13200
C485        C  0.28291898  0.23000218  0.61162046     0.05400
C486        C  0.30209606  0.20719063  0.61084431    -0.09100
C487        C  0.32980330  0.21044987  0.61727788     0.06200
C488        C  0.33848533  0.23664414  0.62390666    -0.13500
Br489      Br  0.31366257  0.26858964  0.66345542    -0.05600
Br490      Br  0.36893366  0.35681847  0.60594508     0.00100
Br491      Br  0.24503821  0.22595335  0.60283626     0.00500
Br492      Br  0.37643909  0.24157853  0.63249291    -0.03900
Br493      Br  0.33954543  0.32977269  0.67653541     0.00600
Br494      Br  0.34432232  0.29450104  0.59431475    -0.03200
Br495      Br  0.26580426  0.28766775  0.61906380    -0.04100
Br496      Br  0.35560379  0.17884088  0.61791417    -0.00100
C497        C  0.23735300  0.58799534  0.61365269     0.01300
C498        C  0.24587246  0.58543264  0.63080783     0.04200
C499        C  0.26497822  0.56398015  0.63559026    -0.11900
C500        C  0.27624262  0.54558283  0.62321353     0.23500
C501        C  0.26852386  0.54879248  0.60604021    -0.12500
C502        C  0.24903981  0.56978136  0.60127496     0.04900
C503        C  0.29596361  0.52259260  0.62822745     0.27300
C504        C  0.32499919  0.52830393  0.63023939    -0.13200
C505        C  0.34370567  0.50651970  0.63495181     0.05400
C506        C  0.33338656  0.47886040  0.63779608    -0.09100
C507        C  0.30430200  0.47310647  0.63552040     0.06200
C508        C  0.28571021  0.49490057  0.63067231    -0.13500
Br509      Br  0.28451572  0.52406284  0.58906088    -0.05600
Br510      Br  0.23046070  0.61020323  0.64798152     0.00100
Br511      Br  0.38320380  0.51519993  0.63831236     0.00500
Br512      Br  0.24610619  0.48688931  0.62716845    -0.03900
Br513      Br  0.23923184  0.57408582  0.57757185     0.00600
Br514      Br  0.27506524  0.55897844  0.65918390    -0.03200
Br515      Br  0.33902559  0.56614415  0.62654114    -0.04100
Br516      Br  0.28987009  0.43513822  0.63827931    -0.00100
C517        C  0.21640464  0.07788388  0.61302133     0.01300
C518        C  0.19630125  0.06391863  0.60276201     0.04200
C519        C  0.17696943  0.04485107  0.61013988    -0.11900
C520        C  0.17768300  0.03967147  0.62776926     0.23500
C521        C  0.19731967  0.05401169  0.63808503    -0.12500
C522        C  0.21650493  0.07326078  0.63076668     0.04900
C523        C  0.15789569  0.01898590  0.63549292     0.27300
C524        C  0.13098307  0.02781618  0.64102342    -0.13200
C525        C  0.11236998  0.00830825  0.64859403     0.05400
C526        C  0.12067310  0.97988448  0.65066973    -0.09100
C527        C  0.14759785  0.97100723  0.64505201     0.06200
C528        C  0.16620749  0.99058853  0.63754388    -0.13500
Br529      Br  0.19820155  0.04660785  0.66222469    -0.05600
Br530      Br  0.19431307  0.07186136  0.57872666     0.00100
Br531      Br  0.07616727  0.02099691  0.65700566     0.00500
Br532      Br  0.20327708  0.97869270  0.63019604    -0.03900
Br533      Br  0.24371279  0.09220658  0.64506868     0.00600
Br534      Br  0.14954413  0.02552974  0.59617798    -0.03200
Br535      Br  0.11998217  0.06685955  0.63855685    -0.04100
Br536      Br  0.15864770  0.93177947  0.64690551    -0.00100
C537        C  0.15929466  0.72198691  0.62000755     0.01300
C538        C  0.14411462  0.72238826  0.63543647     0.04200
C539        C  0.13477168  0.74822229  0.64221687    -0.11900
C540        C  0.14121121  0.77377624  0.63385541     0.23500
C541        C  0.15749659  0.77350738  0.61884327    -0.12500
C542        C  0.16614679  0.74757580  0.61175597     0.04900
C543        C  0.12930542  0.80061714  0.64042744     0.27300
C544        C  0.10249830  0.80959746  0.63484348    -0.13200
C545        C  0.08992045  0.83372871  0.64203423     0.05400
C546        C  0.10424079  0.84911343  0.65478721    -0.09100
C547        C  0.13112053  0.84009302  0.66035516     0.06200
C548        C  0.14373058  0.81602030  0.65305040    -0.13500
Br549      Br  0.16762230  0.80868845  0.60801084    -0.05600
Br550      Br  0.13443495  0.68742222  0.64675198     0.00100
Br551      Br  0.05216230  0.84440153  0.63520723     0.00500
Br552      Br  0.18086593  0.80407316  0.66015496    -0.03900
Br553      Br  0.18765865  0.74708729  0.59088959     0.00600
Br554      Br  0.11210245  0.74866035  0.66263085    -0.03200
Br555      Br  0.08291395  0.78840895  0.61747037    -0.04100
Br556      Br  0.15105241  0.86096561  0.67768930    -0.00100
C557        C  0.84723963  0.46311302  0.64320212     0.01300
C558        C  0.83466852  0.44142742  0.65296146     0.04200
C559        C  0.81558751  0.42247638  0.64533734    -0.11900
C560        C  0.80932289  0.42487315  0.62790514     0.23500
C561        C  0.82311862  0.44541831  0.61792111    -0.12500
C562        C  0.84188435  0.46470467  0.62556682     0.04900
C563        C  0.78654915  0.40732781  0.62040003     0.27300
C564        C  0.79252973  0.38041698  0.61370700    -0.13200
C565        C  0.77062889  0.36378060  0.60680993     0.05400
C566        C  0.74257928  0.37424790  0.60641231    -0.09100
C567        C  0.73677884  0.40130836  0.61324751     0.06200
C568        C  0.75866191  0.41761297  0.62033254    -0.13500
Br569      Br  0.81555670  0.44746549  0.59384316    -0.05600
Br570      Br  0.84413662  0.43708308  0.67668316     0.00100
Br571      Br  0.77968613  0.32708981  0.59754057     0.00500
Br572      Br  0.75045667  0.45384356  0.63057574    -0.03900
Br573      Br  0.85839708  0.49455944  0.61204720     0.00600
Br574      Br  0.79735518  0.39356685  0.65877307    -0.03200
Br575      Br  0.83084060  0.36644514  0.61426055    -0.04100
Br576      Br  0.69869138  0.41579736  0.61407609    -0.00100
C577        C  0.97538206  0.54770653  0.64968491     0.01300
C578        C  0.99600007  0.56005612  0.66035416     0.04200
C579        C  0.02090724  0.57137316  0.65329933    -0.11900
C580        C  0.02536626  0.57019756  0.63562231     0.23500
C581        C  0.00533091  0.55723668  0.62499550    -0.12500
C582        C  0.98032029  0.54607979  0.63195225     0.04900
C583        C  0.05092787  0.58307410  0.62807023     0.27300
C584        C  0.05062183  0.61171885  0.62314755    -0.13200
C585        C  0.07485263  0.62395010  0.61582345     0.05400
C586        C  0.09957278  0.60765032  0.61385919    -0.09100
C587        C  0.09961747  0.57883719  0.61844941     0.06200
C588        C  0.07520430  0.56648781  0.62539720    -0.13500
Br589      Br  0.01217347  0.55554509  0.60078398    -0.05600
Br590      Br  0.99083317  0.56066068  0.68469320     0.00100
Br591      Br  0.07446706  0.66323090  0.60917273     0.00500
Br592      Br  0.07479486  0.52683560  0.63119272    -0.03900
Br593      Br  0.95228293  0.53048427  0.61677719     0.00600
Br594      Br  0.04894500  0.58886264  0.66771474    -0.03200
Br595      Br  0.01703015  0.63410818  0.62674025    -0.04100
Br596      Br  0.13293082  0.55606760  0.61475642    -0.00100
C597        C  0.62741161  0.97614401  0.63926820     0.01300
C598        C  0.65709220  0.97973042  0.64031393     0.04200
C599        C  0.67522934  0.95706007  0.63645185    -0.11900
C600        C  0.66395651  0.93070365  0.63163694     0.23500
C601        C  0.63451995  0.92703884  0.63045838    -0.12500
C602        C  0.61622984  0.94956852  0.63438126     0.04900
C603        C  0.68325434  0.90729006  0.62696643     0.27300
C604        C  0.69454514  0.90624617  0.61044403    -0.13200
C605        C  0.71446358  0.88543928  0.60616219     0.05400
C606        C  0.72307249  0.86529583  0.61839286    -0.09100
C607        C  0.71057807  0.86546508  0.63474189    -0.03400
C608        C  0.69083358  0.88662713  0.63903837    -0.13500
Br609      Br  0.61945811  0.89108168  0.62315268    -0.05600
Br610      Br  0.67345896  0.01584849  0.64630899     0.00100
Br611      Br  0.72895160  0.88411407  0.58318836     0.00500
Br612      Br  0.67443316  0.88788861  0.66152756    -0.03900
Br613      Br  0.57591279  0.94295777  0.63393013     0.00600
Br614      Br  0.71575280  0.96214875  0.63725103    -0.03200
Br615      Br  0.68259331  0.93361590  0.59370636    -0.04100
Br616      Br  0.72124632  0.83779853  0.65159558    -0.00100
C617        C  0.86047159  0.84424797  0.62291805     0.01300
C618        C  0.88613526  0.82917658  0.62167452     0.04200
C619        C  0.91082159  0.84017000  0.62914735    -0.11900
C620        C  0.91013539  0.86668813  0.63728652     0.23500
C621        C  0.88465584  0.88191630  0.63833960    -0.12500
C622        C  0.85973726  0.87050359  0.63144584     0.04900
C623        C  0.93636747  0.87885340  0.64447079     0.27300
C624        C  0.94243899  0.87565027  0.66187153    -0.13200
C625        C  0.96764968  0.88674197  0.66860128     0.05400
C626        C  0.98701439  0.90098269  0.65788852    -0.09100
C627        C  0.98031609  0.90497039  0.64050285     0.06200
C628        C  0.95510016  0.89377483  0.63384782    -0.13500
Br629      Br  0.88416107  0.91858637  0.64911664    -0.05600
Br630      Br  0.88736399  0.79289921  0.61044826     0.00100
Br631      Br  0.97476330  0.88331829  0.69267411     0.00500
Br632      Br  0.94626194  0.89822283  0.61001619    -0.03900
Br633      Br  0.82483263  0.89143912  0.63325685     0.00600
Br634      Br  0.94557693  0.81879527  0.62861738    -0.03200
Br635      Br  0.91618437  0.85570948  0.67638534    -0.04100
Br636      Br  0.00597550  0.92435472  0.62530201    -0.00100
C637        C  0.85817871  0.59944395  0.65200275     0.01300
C638        C  0.87417334  0.61802185  0.64176962     0.04200
C639        C  0.86272372  0.64416927  0.63677831    -0.11900
C640        C  0.83495498  0.65145952  0.64156469     0.23500
C641        C  0.81883592  0.63277270  0.65161953    -0.12500
C642        C  0.83066660  0.60704962  0.65714996     0.04900
C643        C  0.82264434  0.67851273  0.63557338     0.27300
C644        C  0.82471774  0.70303875  0.64567183    -0.13200
C645        C  0.81517373  0.72915631  0.63931267     0.05400
C646        C  0.80361564  0.73078232  0.62281187    -0.09100
C647        C  0.80125292  0.70617745  0.61280450     0.06200
C648        C  0.81045048  0.68002806  0.61926703    -0.13500
Br649      Br  0.78032153  0.64219892  0.65732765    -0.05600
Br650      Br  0.91222705  0.60815594  0.63512044     0.00100
Br651      Br  0.82032266  0.76311694  0.65261722     0.00500
Br652      Br  0.80692736  0.64618998  0.60573100    -0.03900
Br653      Br  0.80897068  0.58190672  0.67140630     0.00600
Br654      Br  0.88499959  0.67018133  0.62337433    -0.03200
Br655      Br  0.84168501  0.70095884  0.66793392    -0.04100
Br656      Br  0.78553811  0.70827882  0.59020866    -0.00100
C657        C  0.61516052  0.34750243  0.15467186     0.01300
C658        C  0.63028552  0.34483821  0.13922534     0.04200
C659        C  0.63882199  0.31805080  0.13343500    -0.11900
C660        C  0.63342349  0.29384618  0.14332279     0.23500
C661        C  0.61989671  0.29649568  0.15919366    -0.12500
C662        C  0.61067849  0.32320423  0.16489160     0.04900
C663        C  0.64196550  0.26559706  0.13691417     0.27300
C664        C  0.62240390  0.24873580  0.12801638    -0.13200
C665        C  0.63075785  0.22240442  0.12136718     0.05400
C666        C  0.65902862  0.21311570  0.12322992    -0.09100
C667        C  0.67840773  0.22983553  0.13249806     0.06200
C668        C  0.66981869  0.25595348  0.13935212    -0.13500
Br669      Br  0.61343186  0.26316502  0.17285218    -0.05600
Br670      Br  0.64096672  0.37789132  0.12626101     0.00100
Br671      Br  0.60275237  0.19850233  0.11068264     0.00500
Br672      Br  0.69624247  0.27895285  0.15192381    -0.03900
Br673      Br  0.59091270  0.32564711  0.18635195     0.00600
Br674      Br  0.65736500  0.31426299  0.11167196    -0.03200
Br675      Br  0.58416160  0.26201984  0.12485282    -0.04100
Br676      Br  0.71714875  0.21788371  0.13525863    -0.00100
C677        C  0.60639611  0.10099810  0.11828394     0.01300
C678        C  0.59623710  0.10997557  0.13430172     0.04200
C679        C  0.56994385  0.10032881  0.14023540    -0.11900
C680        C  0.55366437  0.08190765  0.13017081     0.23500
C681        C  0.56362099  0.07307033  0.11415609    -0.12500
C682        C  0.59005847  0.08245965  0.10823524     0.04900
C683        C  0.52580285  0.07216482  0.13634283     0.27300
C684        C  0.52327751  0.04576758  0.14449487    -0.13200
C685        C  0.49664062  0.03631272  0.15010784     0.05400
C686        C  0.47260678  0.05350752  0.14775934    -0.09100
C687        C  0.47541583  0.08035943  0.14003713     0.06200
C688        C  0.50193100  0.08949609  0.13417699    -0.13500
Br689      Br  0.54071519  0.04835357  0.10031461    -0.05600
Br690      Br  0.61730357  0.13686219  0.14782114     0.00100
Br691      Br  0.49351178  0.00070680  0.16191925     0.00500
Br692      Br  0.50569296  0.12574270  0.12305757    -0.03900
Br693      Br  0.60424840  0.06885225  0.08671506     0.00600
Br694      Br  0.55579617  0.11274003  0.16203255    -0.03200
Br695      Br  0.55657823  0.02299701  0.14816455    -0.04100
Br696      Br  0.44290334  0.10457608  0.13693686    -0.00100
C697        C  0.34944826  0.10204367  0.14358478     0.01300
C698        C  0.34921605  0.12630597  0.15409152     0.04200
C699        C  0.33902400  0.15215535  0.14772237    -0.11900
C700        C  0.32950001  0.15402893  0.13080641     0.23500
C701        C  0.32910842  0.12980239  0.12042733    -0.12500
C702        C  0.33872934  0.10377127  0.12684835     0.04900
C703        C  0.32149458  0.18187594  0.12365360     0.27300
C704        C  0.29296576  0.19027668  0.12322860    -0.13200
C705        C  0.28563108  0.21710247  0.11685261     0.05400
C706        C  0.30693203  0.23580247  0.11112438    -0.09100
C707        C  0.33550127  0.22701763  0.11127823     0.06200
C708        C  0.34268960  0.20009734  0.11748236    -0.13500
Br709      Br  0.31632296  0.13271666  0.09719093    -0.05600
Br710      Br  0.36499804  0.12514589  0.17673131     0.00100
Br711      Br  0.24626264  0.22754014  0.11531988     0.00500
Br712      Br  0.38176990  0.18824179  0.11798295    -0.03900
Br713      Br  0.33646002  0.07044871  0.11272291     0.00600
Br714      Br  0.33916579  0.18551213  0.16188645    -0.03200
Br715      Br  0.26410893  0.16503672  0.13166920    -0.04100
Br716      Br  0.36535135  0.25219573  0.10408486    -0.00100
C717        C  0.36603519  0.34796706  0.11781011     0.01300
C718        C  0.36702864  0.36218071  0.13366422     0.04200
C719        C  0.39309435  0.37143311  0.14027696    -0.11900
C720        C  0.41824890  0.36688189  0.13111281     0.23500
C721        C  0.41747723  0.35240560  0.11549197    -0.12500
C722        C  0.39154361  0.34280584  0.10887918     0.04900
C723        C  0.44553367  0.37762781  0.13784091     0.27300
C724        C  0.45327989  0.40604626  0.13516258    -0.13200
C725        C  0.47874055  0.41656444  0.14193797     0.05400
C726        C  0.49726195  0.39830356  0.15077130    -0.09100
C727        C  0.48982534  0.36953446  0.15292392     0.06200
C728        C  0.46375923  0.35942804  0.14679177    -0.13500
Br729      Br  0.45223655  0.34562432  0.10324754    -0.05600
Br730      Br  0.33286274  0.37036436  0.14625012     0.00100
Br731      Br  0.48739187  0.45629718  0.13965655     0.00500
Br732      Br  0.45309696  0.32042941  0.15029337    -0.03900
Br733      Br  0.39179309  0.32123059  0.08801499     0.00600
Br734      Br  0.39457347  0.39040305  0.16200289    -0.03200
Br735      Br  0.42917469  0.43028305  0.12176701    -0.04100
Br736      Br  0.51611741  0.34313791  0.16297643    -0.00100
C737        C  0.34284868  0.96908049  0.13731700     0.01300
C738        C  0.31353261  0.97375943  0.13520365     0.04200
C739        C  0.29623028  0.95232613  0.12847779    -0.11900
C740        C  0.30810740  0.92633417  0.12344802     0.23500
C741        C  0.33743024  0.92194965  0.12489429    -0.12500
C742        C  0.35480144  0.94317657  0.13189514     0.04900
C743        C  0.28943561  0.90381774  0.11662326     0.27300
C744        C  0.27915313  0.88240687  0.12746163    -0.13200
C745        C  0.25796717  0.86378826  0.12173277     0.05400
C746        C  0.24712934  0.86653489  0.10508223    -0.09100
C747        C  0.25905798  0.88657805  0.09385943     0.06200
C748        C  0.28019338  0.90514951  0.09963359    -0.13500
Br749      Br  0.35357065  0.88664366  0.11735604    -0.05600
Br750      Br  0.29694021  0.01003840  0.14056369     0.00100
Br751      Br  0.24257419  0.83600704  0.13720307     0.00500
Br752      Br  0.29633291  0.93282516  0.08441690    -0.03900
Br753      Br  0.39466205  0.93581538  0.13472744     0.00600
Br754      Br  0.25601789  0.95845239  0.12618230    -0.03200
Br755      Br  0.29362658  0.87917550  0.15031846    -0.04100
Br756      Br  0.24707108  0.88819351  0.07040488    -0.00100
C757        C  0.84560816  0.98306345  0.14681843     0.01300
C758        C  0.85585986  0.01062713  0.14365360     0.04200
C759        C  0.83748452  0.03159016  0.13740170    -0.11900
C760        C  0.80896457  0.02499693  0.13410542     0.23500
C761        C  0.79887115  0.99734882  0.13694932    -0.12500
C762        C  0.81703226  0.97651187  0.14348983     0.04900
C763        C  0.78923052  0.04725419  0.12815467     0.27300
C764        C  0.77614636  0.06532050  0.14003828    -0.13200
C765        C  0.75575958  0.08500386  0.13461386     0.05400
C766        C  0.74824043  0.08647999  0.11728828    -0.09100
C767        C  0.76212738  0.06912023  0.10532252     0.06200
C768        C  0.78265776  0.04960548  0.11074834    -0.13500
Br769      Br  0.76008209  0.98801192  0.13178988    -0.05600
Br770      Br  0.89458747  0.02029241  0.14881654     0.00100
Br771      Br  0.73687221  0.10856809  0.15112226     0.00500
Br772      Br  0.80155570  0.02571040  0.09442833    -0.03900
Br773      Br  0.80274548  0.93875507  0.14739653     0.00600
Br774      Br  0.85111893  0.06952458  0.13353347    -0.03200
Br775      Br  0.78559697  0.06235810  0.16384256    -0.04100
Br776      Br  0.75354256  0.07252527  0.08141512    -0.00100
C777        C  0.97891612  0.90599421  0.14776885     0.01300
C778        C  0.98747332  0.92006126  0.13269656     0.04200
C779        C  0.01362444  0.91356398  0.12510039    -0.11900
C780        C  0.03072446  0.89205822  0.13192100     0.23500
C781        C  0.02247900  0.87819433  0.14698999    -0.12500
C782        C  0.99691833  0.88543009  0.15507466     0.04900
C783        C  0.05650303  0.88274077  0.12268917     0.27300
C784        C  0.05411390  0.86324674  0.10923508    -0.13200
C785        C  0.07853575  0.85272138  0.10116778     0.05400
C786        C  0.10565730  0.86124319  0.10680510    -0.09100
C787        C  0.10782666  0.88205198  0.11970222     0.06200
C788        C  0.08329408  0.89282065  0.12753278    -0.13500
Br789      Br  0.04603016  0.84869509  0.15630233    -0.05600
Br790      Br  0.96265540  0.94636347  0.12123914     0.00100
Br791      Br  0.07421759  0.82564406  0.08299542     0.00500
Br792      Br  0.08612888  0.92143382  0.14495366    -0.03900
Br793      Br  0.98725916  0.86740120  0.17637448     0.00600
Br794      Br  0.02598185  0.93364782  0.10504811    -0.03200
Br795      Br  0.01711887  0.85041802  0.10222909    -0.04100
Br796      Br  0.14425119  0.89690702  0.12635021    -0.00100
C797        C  0.22460541  0.36798099  0.11655983     0.01300
C798        C  0.21700962  0.36770890  0.13389507     0.04200
C799        C  0.19630083  0.38656095  0.13996529    -0.11900
C800        C  0.18309848  0.40559157  0.12868092     0.23500
C801        C  0.18945999  0.40459684  0.11118827    -0.12500
C802        C  0.21035383  0.38602052  0.10514915     0.04900
C803        C  0.16423541  0.42819523  0.13520993     0.27300
C804        C  0.13563009  0.42253276  0.13878196    -0.13200
C805        C  0.11768109  0.44446185  0.14429287     0.05400
C806        C  0.12800814  0.47249619  0.14555044    -0.09100
C807        C  0.15680756  0.47802664  0.14194275     0.06200
C808        C  0.17489042  0.45584165  0.13708211    -0.13500
Br809      Br  0.16966092  0.42910375  0.09558647    -0.05600
Br810      Br  0.23633625  0.34289373  0.14952151     0.00100
Br811      Br  0.07950677  0.43534782  0.15108750     0.00500
Br812      Br  0.21445068  0.46323029  0.13273026    -0.03900
Br813      Br  0.21904993  0.38503652  0.08116728     0.00600
Br814      Br  0.18653485  0.38687087  0.16378000    -0.03200
Br815      Br  0.12108293  0.38470161  0.13583489    -0.04100
Br816      Br  0.17160739  0.51610930  0.14263085    -0.00100
C817        C  0.11356363  0.61046955  0.14578499     0.01300
C818        C  0.11196884  0.63523788  0.15584489     0.04200
C819        C  0.12233856  0.66105583  0.14946188    -0.11900
C820        C  0.13401673  0.66234776  0.13301881     0.23500
C821        C  0.13618902  0.63768905  0.12311130    -0.12500
C822        C  0.12618011  0.61176694  0.12948119     0.04900
C823        C  0.14209045  0.69000627  0.12562200     0.27300
C824        C  0.12159650  0.70619170  0.11709132    -0.13200
C825        C  0.12908446  0.73211073  0.10957533     0.05400
C826        C  0.15716484  0.74223109  0.11078358    -0.09100
C827        C  0.17757998  0.72611796  0.11969444     0.06200
C828        C  0.17003124  0.69995689  0.12696436    -0.13500
Br829      Br  0.15205826  0.63980838  0.10051410    -0.05600
Br830      Br  0.09347663  0.63483765  0.17775889     0.00100
Br831      Br  0.10011401  0.75410968  0.09847411     0.00500
Br832      Br  0.19786106  0.67745715  0.13874114    -0.03900
Br833      Br  0.13037437  0.57811737  0.11575958     0.00600
Br834      Br  0.11944696  0.69517606  0.16283674    -0.03200
Br835      Br  0.08302973  0.69279149  0.11600853    -0.04100
Br836      Br  0.21625187  0.73895604  0.12151371    -0.00100
C837        C  0.62715547  0.48703108  0.14611011     0.01300
C838        C  0.61571025  0.51407276  0.14252172     0.04200
C839        C  0.63296045  0.53544183  0.13550613    -0.11900
C840        C  0.66187752  0.53034216  0.13263233     0.23500
C841        C  0.67352192  0.50379555  0.13660985    -0.12500
C842        C  0.65622741  0.48202344  0.14299014     0.04900
C843        C  0.68058091  0.55287828  0.12578933     0.27300
C844        C  0.68538422  0.55491931  0.10814833    -0.13200
C845        C  0.70605466  0.57363783  0.10185189     0.05400
C846        C  0.72239372  0.58995509  0.11321358    -0.09100
C847        C  0.71668652  0.58880490  0.13081681     0.06200
C848        C  0.69566431  0.57042685  0.13706209    -0.13500
Br849      Br  0.71357857  0.49758506  0.13351901    -0.05600
Br850      Br  0.57699220  0.52299156  0.14825313     0.00100
Br851      Br  0.71130641  0.57762961  0.07761127     0.00500
Br852      Br  0.68814708  0.56826194  0.16114936    -0.03900
Br853      Br  0.67272478  0.44514983  0.14658792     0.00600
Br854      Br  0.61726709  0.57198508  0.13005667    -0.03200
Br855      Br  0.66416525  0.53137828  0.09270937    -0.04100
Br856      Br  0.73895758  0.61078540  0.14655197    -0.00100
C857        C  0.99426117  0.55877897  0.14624568     0.01300
C858        C  0.97505803  0.53828806  0.14012722     0.04200
C859        C  0.94856491  0.54662985  0.13370502    -0.11900
C860        C  0.94102082  0.57545092  0.13341021     0.23500
C861        C  0.95970702  0.59584846  0.14006197    -0.12500
C862        C  0.98638895  0.58764267  0.14628170     0.04900
C863        C  0.91362948  0.58438604  0.12584174     0.27300
C864        C  0.91278623  0.59521934  0.10914931    -0.13200
C865        C  0.88697332  0.60439118  0.10208880     0.05400
C866        C  0.86164530  0.60217741  0.11161673    -0.09100
C867        C  0.86252869  0.59027835  0.12812327     0.06200
C868        C  0.88850886  0.58220326  0.13535183    -0.13500
Br869      Br  0.94851609  0.63510464  0.14062397    -0.05600
Br870      Br  0.98442196  0.49857031  0.14110034     0.00100
Br871      Br  0.88713291  0.62156149  0.07980147     0.00500
Br872      Br  0.88999755  0.56917218  0.15859548    -0.03900
Br873      Br  0.01264601  0.61644006  0.15370155     0.00600
Br874      Br  0.92240626  0.51854308  0.12537092    -0.03200
Br875      Br  0.94739870  0.59834115  0.09621391    -0.04100
Br876      Br  0.82807372  0.58353005  0.14071769    -0.00100
C877        C  0.85941875  0.84833880  0.14678042     0.01300
C878        C  0.86127683  0.82262067  0.15596658     0.04200
C879        C  0.85051107  0.79742975  0.14892231    -0.11900
C880        C  0.83833645  0.79755699  0.13258621     0.23500
C881        C  0.83593381  0.82314223  0.12354870    -0.12500
C882        C  0.84614544  0.84849092  0.13064801     0.04900
C883        C  0.82859400  0.77069360  0.12470519     0.27300
C884        C  0.84831707  0.75236773  0.11702442    -0.13200
C885        C  0.83920694  0.72687471  0.10956801     0.05400
C886        C  0.81015980  0.71974885  0.10956857    -0.09100
C887        C  0.79036187  0.73865414  0.11672979     0.06200
C888        C  0.79962557  0.76374488  0.12458470    -0.13500
Br889      Br  0.81880949  0.82325655  0.10126145    -0.05600
Br890      Br  0.88008003  0.82093822  0.17776078     0.00100
Br891      Br  0.86700606  0.70124075  0.10025088     0.00500
Br892      Br  0.77274515  0.78842473  0.13555356    -0.03900
Br893      Br  0.84064178  0.88341244  0.11832173     0.00600
Br894      Br  0.85270258  0.76244677  0.16153553    -0.03200
Br895      Br  0.88800044  0.76203054  0.11707980    -0.04100
Br896      Br  0.75034928  0.73111848  0.11493348    -0.00100
C897        C  0.75208961  0.32209839  0.45200639     0.01300
C898        C  0.73991901  0.34665818  0.45905487     0.04200
C899        C  0.73043475  0.34650183  0.47598963    -0.11900
C900        C  0.73298276  0.32179208  0.48585802     0.23500
C901        C  0.74528338  0.29730675  0.47888234    -0.12500
C902        C  0.75461760  0.29735121  0.46190839     0.04900
C903        C  0.72278306  0.32162825  0.50362891     0.27300
C904        C  0.74148360  0.32839009  0.51691896    -0.13200
C905        C  0.73167904  0.32899160  0.53377617     0.05400
C906        C  0.70322929  0.32232337  0.53740732    -0.09100
C907        C  0.68453846  0.31536750  0.52407331     0.06200
C908        C  0.69433143  0.31509337  0.50718129    -0.13500
Br909      Br  0.74989982  0.26402785  0.49281956    -0.05600
Br910      Br  0.73485308  0.38009455  0.44528541     0.00100
Br911      Br  0.75686179  0.34085476  0.55170366     0.00500
Br912      Br  0.66896450  0.30569838  0.48880944    -0.03900
Br913      Br  0.77185434  0.26382522  0.45250524     0.00600
Br914      Br  0.71415140  0.38015148  0.48582457    -0.03200
Br915      Br  0.78050790  0.33699766  0.51189929    -0.04100
Br916      Br  0.64583472  0.30518559  0.52891686    -0.00100
C917        C  0.90277056  0.99735835  0.30045270     0.01300
C918        C  0.90321303  0.96767726  0.29839518     0.04200
C919        C  0.90642508  0.95584775  0.28210108    -0.11900
C920        C  0.90794627  0.97354212  0.26773797     0.23500
C921        C  0.90782136  0.00314545  0.26976360    -0.12500
C922        C  0.90591602  0.01504261  0.28611155     0.04900
C923        C  0.90743186  0.96111463  0.25043160     0.27300
C924        C  0.93270146  0.95724832  0.24124351    -0.13200
C925        C  0.93176802  0.94748902  0.22433447     0.05400
C926        C  0.90555272  0.94082446  0.21674012    -0.09100
C927        C  0.88034467  0.94368155  0.22623514     0.06200
C928        C  0.88131542  0.95398100  0.24299347    -0.13500
Br929      Br  0.90903395  0.02737082  0.25003020    -0.05600
Br930      Br  0.89678591  0.94295247  0.31752161     0.00100
Br931      Br  0.96650110  0.94273320  0.21174858     0.00500
Br932      Br  0.84676001  0.95912414  0.25573478    -0.03900
Br933      Br  0.90852870  0.05557557  0.28881078     0.00600
Br934      Br  0.90774540  0.91532830  0.27927311    -0.03200
Br935      Br  0.96849321  0.96524341  0.25195741    -0.04100
Br936      Br  0.84410664  0.93552817  0.21603193    -0.00100
C937        C  0.80168001  0.24273765  0.38758826     0.01300
C938        C  0.82920277  0.23276474  0.39131240     0.04200
C939        C  0.83761881  0.20573958  0.38584863    -0.11900
C940        C  0.81894536  0.18884441  0.37632249     0.23500
C941        C  0.79172659  0.19881583  0.37237210    -0.12500
C942        C  0.78287475  0.22546970  0.37823270     0.04900
C943        C  0.82798854  0.16052705  0.37042180     0.27300
C944        C  0.84013736  0.15731251  0.35420401    -0.13200
C945        C  0.84974400  0.13061337  0.34881118     0.05400
C946        C  0.84722794  0.10692899  0.35974962    -0.09100
C947        C  0.83370587  0.11011805  0.37570033     0.06200
C948        C  0.82446846  0.13690037  0.38107434    -0.13500
Br949      Br  0.76680956  0.17590491  0.35866628    -0.05600
Br950      Br  0.85634378  0.25641559  0.40297248     0.00100
Br951      Br  0.86757886  0.12746209  0.32678085     0.00500
Br952      Br  0.80741512  0.14149628  0.40322525    -0.03900
Br953      Br  0.74440615  0.23728427  0.37411644     0.00600
Br954      Br  0.87500095  0.19187687  0.39110747    -0.03200
Br955      Br  0.84426081  0.18993173  0.33962672    -0.04100
Br956      Br  0.82644023  0.07783012  0.39011860    -0.00100
C957        C  0.06401125  0.50668254  0.21062635     0.01300
C958        C  0.05233426  0.52325978  0.22377274     0.04200
C959        C  0.05131209  0.51262077  0.24046728    -0.11900
C960        C  0.06153211  0.48527341  0.24399549     0.23500
C961        C  0.07245294  0.46840335  0.23079900    -0.12500
C962        C  0.07419216  0.47926276  0.21419651     0.04900
C963        C  0.06339130  0.47537092  0.26181711     0.27300
C964        C  0.08803825  0.48105489  0.27125913    -0.13200
C965        C  0.08996827  0.47233437  0.28830100     0.05400
C966        C  0.06717120  0.45793969  0.29596111    -0.09100
C967        C  0.04267263  0.45178926  0.28639621     0.06200
C968        C  0.04077283  0.46056634  0.26934001    -0.13500
Br969      Br  0.08598879  0.43077948  0.23568799    -0.05600
Br970      Br  0.03749757  0.56041500  0.21894926     0.00100
Br971      Br  0.12334241  0.48136784  0.30131024     0.00500
Br972      Br  0.00730833  0.45234759  0.25622155    -0.03900
Br973      Br  0.09328516  0.45760910  0.19682680     0.00600
Br974      Br  0.03682121  0.53574127  0.25870292    -0.03200
Br975      Br  0.11898759  0.50122406  0.26077570    -0.04100
Br976      Br  0.01226275  0.43008835  0.29635451    -0.00100
C977        C  0.85605221  0.35844688  0.38797302     0.01300
C978        C  0.86566068  0.38410830  0.39508882     0.04200
C979        C  0.89239250  0.39481082  0.39062625    -0.11900
C980        C  0.90920549  0.38032739  0.37872197     0.23500
C981        C  0.89943251  0.35507216  0.37129811    -0.12500
C982        C  0.87294857  0.34402385  0.37597080     0.04900
C983        C  0.93711241  0.39181348  0.37382871     0.27300
C984        C  0.93928448  0.41064808  0.36002281    -0.13200
C985        C  0.96590028  0.42100201  0.35508017     0.05400
C986        C  0.99042629  0.41174029  0.36358095    -0.09100
C987        C  0.98819375  0.39310308  0.37751031     0.06200
C988        C  0.96146938  0.38357276  0.38282459    -0.13500
Br989      Br  0.92257820  0.33564063  0.35478341    -0.05600
Br990      Br  0.84156396  0.40568499  0.41004052     0.00100
Br991      Br  0.96860605  0.44880918  0.33718858     0.00500
Br992      Br  0.95806811  0.35908887  0.40234901    -0.03900
Br993      Br  0.86056712  0.30852734  0.36636544     0.00600
Br994      Br  0.90626181  0.42929570  0.40076523    -0.03200
Br995      Br  0.90572206  0.42190447  0.34783894    -0.04100
Br996      Br  0.02178081  0.37908768  0.38860525    -0.00100
C997        C  0.25477626  0.14279005  0.54209471     0.01300
C998        C  0.24929699  0.11927419  0.53154215     0.04200
C999        C  0.24005888  0.12338125  0.51472555    -0.11900
C1000       C  0.23687164  0.15095501  0.50821430     0.23500
C1001       C  0.24341068  0.17445965  0.51850221    -0.12500
C1002       C  0.25199598  0.17041455  0.53549239     0.04900
C1003       C  0.22587588  0.15487796  0.49067205     0.27300
C1004       C  0.24430089  0.15295006  0.47664951    -0.13200
C1005       C  0.23339440  0.15285343  0.45998888     0.05400
C1006       C  0.20391653  0.15515008  0.45726832    -0.09100
C1007       C  0.18564526  0.15838040  0.47134182     0.06200
C1008       C  0.19660162  0.15803880  0.48799045    -0.13500
Br1009     Br  0.24094588  0.21208447  0.50915976    -0.05600
Br1010     Br  0.25312703  0.08128623  0.54026036     0.00100
Br1011     Br  0.25888855  0.14699401  0.44110718     0.00500
Br1012     Br  0.17147979  0.16078305  0.50726940    -0.03900
Br1013     Br  0.26107991  0.20270237  0.54948234     0.00600
Br1014     Br  0.23124590  0.09120477  0.50056730    -0.03200
Br1015     Br  0.28444253  0.14920822  0.48042662    -0.04100
Br1016     Br  0.14562402  0.16382381  0.46790784    -0.00100
C1017       C  0.10022724  0.10831784  0.39078373     0.01300
C1018       C  0.08465679  0.12351856  0.37847481     0.04200
C1019       C  0.05857457  0.11305429  0.37262899    -0.11900
C1020       C  0.04800966  0.08726046  0.37891903     0.23500
C1021       C  0.06362661  0.07181882  0.39100318    -0.12500
C1022       C  0.08953800  0.08245691  0.39708996     0.04900
C1023       C  0.01983328  0.07700547  0.37342165     0.27300
C1024       C  0.99592942  0.08246035  0.38361816    -0.13200
C1025       C  0.96914184  0.07277054  0.37851892     0.05400
C1026       C  0.96625624  0.05749344  0.36322910    -0.09100
C1027       C  0.99014468  0.05195443  0.35305212     0.06200
C1028       C  0.01688701  0.06189377  0.35808018    -0.13500
Br1029     Br  0.04924149  0.03605186  0.39913923    -0.05600
Br1030     Br  0.09787611  0.15977043  0.37040783     0.00100
Br1031     Br  0.93625409  0.08169479  0.39206874     0.00500
Br1032     Br  0.04948146  0.05499512  0.34393905    -0.03900
Br1033     Br  0.11050821  0.06114262  0.41375001     0.00600
Br1034     Br  0.03679724  0.13435074  0.35629341    -0.03200
Br1035     Br  0.99996062  0.10368888  0.40443704    -0.04100
Br1036     Br  0.98639389  0.02955378  0.33264015    -0.00100
C1037       C  0.15509254  0.22405231  0.38925766     0.01300
C1038       C  0.15495904  0.22884183  0.37148666     0.04200
C1039       C  0.14624016  0.25517907  0.36500563    -0.11900
C1040       C  0.13726239  0.27664370  0.37616690     0.23500
C1041       C  0.13785620  0.27212719  0.39385596    -0.12500
C1042       C  0.14712741  0.24608108  0.40041219     0.04900
C1043       C  0.12659001  0.30384634  0.36936155     0.27300
C1044       C  0.14415200  0.32793431  0.36929835    -0.13200
C1045       C  0.13327334  0.35421974  0.36409965     0.05400
C1046       C  0.10517023  0.35619947  0.35827652    -0.09100
C1047       C  0.08792982  0.33188716  0.35773350     0.06200
C1048       C  0.09844315  0.30587108  0.36362762    -0.13500
Br1049     Br  0.12546218  0.30166612  0.40908329    -0.05600
Br1050     Br  0.16519345  0.19917163  0.35575307     0.00100
Br1051     Br  0.15695496  0.38746403  0.36479148     0.00500
Br1052     Br  0.07395141  0.27323711  0.36464913    -0.03900
Br1053     Br  0.15030818  0.24143270  0.42474410     0.00600
Br1054     Br  0.14613678  0.26193076  0.34078614    -0.03200
Br1055     Br  0.18297403  0.32483870  0.37658361    -0.04100
Br1056     Br  0.04936918  0.33450408  0.34984738    -0.00100
C1057       C  0.40310445  0.95737447  0.29693594     0.01300
C1058       C  0.42452055  0.97615444  0.29132876     0.04200
C1059       C  0.42441134  0.98638883  0.27450314    -0.11900
C1060       C  0.40305990  0.97790967  0.26314036     0.23500
C1061       C  0.38180508  0.95911464  0.26859814    -0.12500
C1062       C  0.38171182  0.94891395  0.28542896     0.04900
C1063       C  0.40277391  0.98875942  0.24540723     0.27300
C1064       C  0.38544938  0.01186369  0.24108447    -0.13200
C1065       C  0.38356528  0.02092211  0.22405883     0.05400
C1066       C  0.39943253  0.00712448  0.21122981    -0.09100
C1067       C  0.41778322  0.98467760  0.21581304     0.06200
C1068       C  0.41909575  0.97539472  0.23280119    -0.13500
Br1069     Br  0.35251517  0.94778714  0.25290295    -0.05600
Br1070     Br  0.45483128  0.98732287  0.30634109     0.00100
Br1071     Br  0.35784018  0.05137715  0.21860796     0.00500
Br1072     Br  0.44310418  0.94399515  0.23890029    -0.03900
Br1073     Br  0.35100562  0.92486072  0.29275850     0.00600
Br1074     Br  0.45342685  0.01223215  0.26690381    -0.03200
Br1075     Br  0.36393471  0.03069587  0.25861964    -0.04100
Br1076     Br  0.44240525  0.96729089  0.19921275    -0.00100
C1077       C  0.34306608  0.99333146  0.36493827     0.01300
C1078       C  0.31488493  0.99328942  0.35881570     0.04200
C1079       C  0.29572603  0.01405187  0.36433952    -0.11900
C1080       C  0.30491818  0.03609715  0.37501429     0.23500
C1081       C  0.33323158  0.03704966  0.38047358    -0.12500
C1082       C  0.35192970  0.01509235  0.37609302     0.04900
C1083       C  0.28419631  0.05726730  0.38117323     0.27300
C1084       C  0.27414522  0.07844120  0.37013590    -0.13200
C1085       C  0.25138156  0.09570667  0.37511413     0.05400
C1086       C  0.23982220  0.09311290  0.39163628    -0.09100
C1087       C  0.25120092  0.07298867  0.40303798     0.06200
C1088       C  0.27284331  0.05470060  0.39765985    -0.13500
Br1089     Br  0.34629810  0.06861152  0.39391421    -0.05600
Br1090     Br  0.30220668  0.96596873  0.34218402     0.00100
Br1091     Br  0.23466916  0.12092718  0.35862314     0.00500
Br1092     Br  0.28655970  0.02553695  0.41275364    -0.03900
Br1093     Br  0.38874897  0.01401713  0.38670936     0.00600
Br1094     Br  0.25652401  0.01213052  0.35747664    -0.03200
Br1095     Br  0.29149519  0.08339384  0.34809455    -0.04100
Br1096     Br  0.23817222  0.07083093  0.42630177    -0.00100
C1097       C  0.24975107  0.65579890  0.46309726     0.01300
C1098       C  0.24570325  0.68140624  0.47201646     0.04200
C1099       C  0.23561908  0.68099744  0.48888994    -0.11900
C1100       C  0.22948218  0.65507141  0.49691682     0.23500
C1101       C  0.23298469  0.62954707  0.48795125    -0.12500
C1102       C  0.24305287  0.62986668  0.47110294     0.04900
C1103       C  0.21957090  0.65458474  0.51485540     0.27300
C1104       C  0.23934530  0.65324151  0.52821688    -0.13200
C1105       C  0.23006795  0.65273894  0.54522351     0.05400
C1106       C  0.20083621  0.65244230  0.54893081    -0.09100
C1107       C  0.18103194  0.65388456  0.53552157     0.06200
C1108       C  0.19042973  0.65529317  0.51854502    -0.13500
Br1109     Br  0.22373815  0.59412565  0.49882182    -0.05600
Br1110     Br  0.25516436  0.71704549  0.46155767     0.00100
Br1111     Br  0.25767209  0.65139756  0.56331440     0.00500
Br1112     Br  0.16346575  0.65831288  0.50024581    -0.03900
Br1113     Br  0.24618124  0.59465432  0.45877446     0.00600
Br1114     Br  0.23023134  0.71589656  0.50118490    -0.03200
Br1115     Br  0.27920905  0.65135481  0.52313495    -0.04100
Br1116     Br  0.14099497  0.65533763  0.54033010    -0.00100
C1117       C  0.21315978  0.59944641  0.39729594     0.01300
C1118       C  0.21910785  0.57419114  0.38849248     0.04200
C1119       C  0.19703460  0.55571531  0.38401511    -0.11900
C1120       C  0.16882310  0.56238906  0.38822252     0.23500
C1121       C  0.16283785  0.58752570  0.39717798    -0.12500
C1122       C  0.18500987  0.60597473  0.40177674     0.04900
C1123       C  0.14588381  0.54289269  0.38272849     0.27300
C1124       C  0.13229004  0.54725917  0.36698582    -0.13200
C1125       C  0.11466297  0.52611883  0.36015360     0.05400
C1126       C  0.11195789  0.49996999  0.36854683    -0.09100
C1127       C  0.12486776  0.49584085  0.38448493     0.06200
C1128       C  0.14077791  0.51776610  0.39190138    -0.13500
Br1129     Br  0.12440986  0.59637744  0.40336983    -0.05600
Br1130     Br  0.25746915  0.56528061  0.38200890     0.00100
Br1131     Br  0.09573325  0.53210254  0.33873466     0.00500
Br1132     Br  0.15604912  0.51332974  0.41446036    -0.03900
Br1133     Br  0.17710750  0.63924161  0.41519271     0.00600
Br1134     Br  0.20541006  0.52111830  0.37198378    -0.03200
Br1135     Br  0.13928049  0.58144427  0.35430457    -0.04100
Br1136     Br  0.12157301  0.45975804  0.39581610    -0.00100
C1137       C  0.36462930  0.85592663  0.36270494     0.01300
C1138       C  0.38271528  0.83369487  0.36766960     0.04200
C1139       C  0.37123487  0.80761621  0.37288393    -0.11900
C1140       C  0.34168099  0.80410383  0.37377263     0.23500
C1141       C  0.32365135  0.82644396  0.36903039    -0.12500
C1142       C  0.33509904  0.85231679  0.36350256     0.04900
C1143       C  0.32942114  0.77776211  0.38089189     0.27300
C1144       C  0.32321805  0.75467889  0.37022445    -0.13200
C1145       C  0.31018594  0.73033721  0.37695572     0.05400
C1146       C  0.30410712  0.72869415  0.39453924    -0.09100
C1147       C  0.31108446  0.75161890  0.40525559     0.06200
C1148       C  0.32329227  0.77622197  0.39838898    -0.13500
Br1149     Br  0.28321953  0.82167104  0.37057633    -0.05600
Br1150     Br  0.42320388  0.83898924  0.36749013     0.00100
Br1151     Br  0.30255132  0.69864052  0.36213553     0.00500
Br1152     Br  0.33179778  0.80800244  0.41293610    -0.03900
Br1153     Br  0.31036621  0.88363688  0.35847429     0.00600
Br1154     Br  0.39585576  0.77664485  0.37883925    -0.03200
Br1155     Br  0.33345775  0.75620139  0.34649154    -0.04100
Br1156     Br  0.30365808  0.74978723  0.42935910    -0.00100
C1157       C  0.56865455  0.45800443  0.21491283     0.01300
C1158       C  0.57409535  0.48714897  0.21718242     0.04200
C1159       C  0.57302670  0.49908508  0.23356114    -0.11900
C1160       C  0.56646028  0.48200096  0.24769504     0.23500
C1161       C  0.56142472  0.45288342  0.24550036    -0.12500
C1162       C  0.56246661  0.44088086  0.22915428     0.04900
C1163       C  0.56508733  0.49447942  0.26495767     0.27300
C1164       C  0.58993989  0.49746157  0.27463246    -0.13200
C1165       C  0.58854712  0.50831780  0.29125235     0.05400
C1166       C  0.56217342  0.51591519  0.29832442    -0.09100
C1167       C  0.53726855  0.51271872  0.28865619     0.06200
C1168       C  0.53877559  0.50221687  0.27194867    -0.13500
Br1169     Br  0.55353934  0.42946025  0.26505843    -0.05600
Br1170     Br  0.58490627  0.51051980  0.19809691     0.00100
Br1171     Br  0.62265405  0.51074575  0.30468456     0.00500
Br1172     Br  0.50478424  0.49793775  0.25863633    -0.03900
Br1173     Br  0.55443987  0.40111545  0.22635522     0.00600
Br1174     Br  0.58130212  0.53870242  0.23679577    -0.03200
Br1175     Br  0.62573649  0.48558294  0.26526089    -0.04100
Br1176     Br  0.50109336  0.52324673  0.29808047    -0.00100
C1177       C  0.61306528  0.47567390  0.36274521     0.01300
C1178       C  0.63390412  0.47950835  0.37531155     0.04200
C1179       C  0.65297382  0.45759663  0.37889193    -0.11900
C1180       C  0.65168986  0.43217904  0.36958734     0.23500
C1181       C  0.63080154  0.42828133  0.35707540    -0.12500
C1182       C  0.61124535  0.44993516  0.35377759     0.04900
C1183       C  0.67260460  0.40976750  0.37302927     0.27300
C1184       C  0.69934793  0.41092118  0.36520008    -0.13200
C1185       C  0.72058273  0.39189994  0.37014348     0.05400
C1186       C  0.71501036  0.37166036  0.38289285    -0.09100
C1187       C  0.68785748  0.36985036  0.39025684     0.06200
C1188       C  0.66659657  0.38879851  0.38520475    -0.13500
Br1189     Br  0.62950230  0.39351860  0.34428352    -0.05600
Br1190     Br  0.63591338  0.51450717  0.38790182     0.00100
Br1191     Br  0.75731919  0.39367052  0.35945153     0.00500
Br1192     Br  0.62950526  0.38702868  0.39541137    -0.03900
Br1193     Br  0.58294619  0.44488974  0.33635708     0.00600
Br1194     Br  0.68089895  0.46222364  0.39657471    -0.03200
Br1195     Br  0.70696468  0.43918281  0.34807133    -0.04100
Br1196     Br  0.68044331  0.34342414  0.40843626    -0.00100
C1197       C  0.48307076  0.55551837  0.36976206     0.01300
C1198       C  0.48180340  0.56990934  0.38547379     0.04200
C1199       C  0.45584717  0.58081552  0.39127528    -0.11900
C1200       C  0.43117919  0.57719961  0.38145948     0.23500
C1201       C  0.43230189  0.56185873  0.36614100    -0.12500
C1202       C  0.45811006  0.55067550  0.36043584     0.04900
C1203       C  0.40408672  0.58993844  0.38701626     0.27300
C1204       C  0.38420417  0.57355390  0.39603864    -0.13200
C1205       C  0.35836534  0.58559451  0.40114080     0.05400
C1206       C  0.35223776  0.61391436  0.39707168    -0.09100
C1207       C  0.37212949  0.63031853  0.38805023     0.06200
C1208       C  0.39797224  0.61829494  0.38293830    -0.13500
Br1209     Br  0.39860584  0.55726145  0.35262191    -0.05600
Br1210     Br  0.51572700  0.57630864  0.39861362     0.00100
Br1211     Br  0.33124919  0.56340568  0.41371298     0.00500
Br1212     Br  0.42505861  0.64049051  0.37026512    -0.03900
Br1213     Br  0.45907349  0.52780442  0.34012616     0.00600
Br1214     Br  0.45422312  0.60187282  0.41226513    -0.03200
Br1215     Br  0.39241824  0.53456275  0.40122498    -0.04100
Br1216     Br  0.36462782  0.66961888  0.38342779    -0.00100
C1217       C  0.70536888  0.81341202  0.46888254     0.01300
C1218       C  0.70759835  0.83848472  0.47860734     0.04200
C1219       C  0.71776698  0.83742546  0.49543460    -0.11900
C1220       C  0.72674882  0.81156254  0.50247055     0.23500
C1221       C  0.72463732  0.78655924  0.49280377    -0.12500
C1222       C  0.71413838  0.78745682  0.47604476     0.04900
C1223       C  0.73808714  0.81051528  0.52012425     0.27300
C1224       C  0.76707239  0.81506980  0.52319346    -0.13200
C1225       C  0.77797870  0.81289306  0.53983500     0.05400
C1226       C  0.75963493  0.80726335  0.55369926    -0.09100
C1227       C  0.73044782  0.80307756  0.55051915     0.06200
C1228       C  0.71984092  0.80458012  0.53380904    -0.13500
Br1229     Br  0.73526287  0.75089470  0.50285268    -0.05600
Br1230     Br  0.69881836  0.87473881  0.46860141     0.00100
Br1231     Br  0.81830826  0.81593452  0.54324291     0.00500
Br1232     Br  0.67999308  0.79938242  0.52954092    -0.03900
Br1233     Br  0.71097943  0.75278419  0.46322262     0.00600
Br1234     Br  0.71874740  0.87127128  0.50912451    -0.03200
Br1235     Br  0.79169106  0.82499353  0.50451798    -0.04100
Br1236     Br  0.70410086  0.79671723  0.56893695    -0.00100
C1237       C  0.83717636  0.96881844  0.36803615     0.01300
C1238       C  0.80925308  0.97539840  0.37301744     0.04200
C1239       C  0.79149024  0.95411113  0.37935055    -0.11900
C1240       C  0.80114490  0.92603559  0.38013918     0.23500
C1241       C  0.82877911  0.91922415  0.37497985    -0.12500
C1242       C  0.84710786  0.94072617  0.36938074     0.04900
C1243       C  0.78199453  0.90397512  0.38669221     0.27300
C1244       C  0.78240397  0.89712237  0.40411742    -0.13200
C1245       C  0.76165798  0.87905383  0.41085130     0.05400
C1246       C  0.74044673  0.86814890  0.40015430    -0.09100
C1247       C  0.74034113  0.87458520  0.38268471     0.06200
C1248       C  0.76135748  0.89224205  0.37590079    -0.13500
Br1249     Br  0.84101799  0.88030354  0.37515950    -0.05600
Br1250     Br  0.79531484  0.01369631  0.37194497     0.00100
Br1251     Br  0.76225443  0.86922389  0.43466773     0.00500
Br1252     Br  0.76131909  0.90139411  0.35198751    -0.03900
Br1253     Br  0.88540635  0.93121607  0.36317346     0.00600
Br1254     Br  0.75378309  0.96327115  0.38708725    -0.03200
Br1255     Br  0.81073212  0.91347843  0.41878239    -0.04100
Br1256     Br  0.71003054  0.86114350  0.36837442    -0.00100
C1257       C  0.60589569  0.85986186  0.40001515     0.01300
C1258       C  0.58726601  0.84429195  0.38960923     0.04200
C1259       C  0.56266193  0.85713043  0.38321595    -0.11900
C1260       C  0.55693571  0.88573888  0.38687954     0.23500
C1261       C  0.57568373  0.90136411  0.39714958    -0.12500
C1262       C  0.60008106  0.88838905  0.40377880     0.04900
C1263       C  0.53034723  0.89868337  0.38062209     0.27300
C1264       C  0.52931982  0.91137935  0.36442835    -0.13200
C1265       C  0.50327146  0.92033419  0.35766381     0.05400
C1266       C  0.47823881  0.91723693  0.36727255    -0.09100
C1267       C  0.47955751  0.90563167  0.38383410     0.06200
C1268       C  0.50557535  0.89640018  0.39044945    -0.13500
Br1269     Br  0.56752142  0.94032899  0.40237016    -0.05600
Br1270     Br  0.59463057  0.80493037  0.38482016     0.00100
Br1271     Br  0.50204080  0.93706413  0.33527873     0.00500
Br1272     Br  0.50739279  0.87971796  0.41284103    -0.03900
Br1273     Br  0.62599903  0.90981738  0.41764942     0.00600
Br1274     Br  0.53605688  0.83527068  0.37001268    -0.03200
Br1275     Br  0.56367224  0.91634248  0.35154551    -0.04100
Br1276     Br  0.44562290  0.89994864  0.39710185    -0.00100
C1277       C  0.65153585  0.74167500  0.40060683     0.01300
C1278       C  0.64213425  0.71935661  0.41114209     0.04200
C1279       C  0.63087832  0.69463324  0.40385270    -0.11900
C1280       C  0.62870709  0.69222504  0.38606588     0.23500
C1281       C  0.63841085  0.71417177  0.37550663    -0.12500
C1282       C  0.64992835  0.73882296  0.38270019     0.04900
C1283       C  0.61685043  0.66627685  0.37836356     0.27300
C1284       C  0.63504212  0.64399091  0.37378536    -0.13200
C1285       C  0.62391014  0.61928466  0.36649900     0.05400
C1286       C  0.59457295  0.61676559  0.36391992    -0.09100
C1287       C  0.57644279  0.63943116  0.36790556     0.06200
C1288       C  0.58759418  0.66419144  0.37519384    -0.13500
Br1289     Br  0.63568768  0.71020234  0.35110709    -0.05600
Br1290     Br  0.64583525  0.72184187  0.43554363     0.00100
Br1291     Br  0.64891128  0.58937850  0.35926201     0.00500
Br1292     Br  0.56291954  0.69519864  0.38098033    -0.03900
Br1293     Br  0.66207836  0.76889920  0.36772039     0.00600
Br1294     Br  0.61875173  0.66372857  0.41814736    -0.03200
Br1295     Br  0.67520088  0.64747405  0.37752165    -0.04100
Br1296     Br  0.53630639  0.63618752  0.36386152    -0.00100
C1297       C  0.75597722  0.13792765  0.96673244     0.01300
C1298       C  0.74962507  0.16458696  0.97382176     0.04200
C1299       C  0.73915843  0.16643850  0.99053948    -0.11900
C1300       C  0.73508645  0.14167875  0.00018757     0.23500
C1301       C  0.74181638  0.11509922  0.99321819    -0.12500
C1302       C  0.75242777  0.11322111  0.97655703     0.04900
C1303       C  0.72477776  0.14349939  0.01793446     0.27300
C1304       C  0.74428779  0.14672275  0.03128293    -0.13200
C1305       C  0.73493125  0.14641730  0.04824699     0.05400
C1306       C  0.70582653  0.14328678  0.05191712    -0.09100
C1307       C  0.68619509  0.14086990  0.03845112     0.06200
C1308       C  0.69573041  0.14079857  0.02149560    -0.13500
Br1309     Br  0.73655797  0.08130657  0.00664576    -0.05600
Br1310     Br  0.75713020  0.19869721  0.96109690     0.00100
Br1311     Br  0.76255654  0.14828843  0.06629646     0.00500
Br1312     Br  0.66917681  0.13661692  0.00304232    -0.03900
Br1313     Br  0.76154495  0.07667319  0.96716780     0.00600
Br1314     Br  0.73084863  0.20281959  0.00045160    -0.03200
Br1315     Br  0.78402180  0.15086535  0.02620030    -0.04100
Br1316     Br  0.64611436  0.13871360  0.04303440    -0.00100
C1317       C  0.21183377  0.32676142  0.96331656     0.01300
C1318       C  0.22549821  0.30214565  0.96929128     0.04200
C1319       C  0.23671422  0.30140331  0.98583596    -0.11900
C1320       C  0.23446264  0.32525153  0.99646230     0.23500
C1321       C  0.22108189  0.34995295  0.99048578    -0.12500
C1322       C  0.20974930  0.35072080  0.97394699     0.04900
C1323       C  0.24493786  0.32382428  0.01421158     0.27300
C1324       C  0.22571109  0.31877864  0.02754274    -0.13200
C1325       C  0.23531168  0.31741082  0.04442739     0.05400
C1326       C  0.26443167  0.32063554  0.04806280    -0.09100
C1327       C  0.28375908  0.32528067  0.03461216     0.06200
C1328       C  0.27398036  0.32689347  0.01773479    -0.13500
Br1329     Br  0.21828163  0.38268564  0.00506553    -0.05600
Br1330     Br  0.22762004  0.26873856  0.95522677     0.00100
Br1331     Br  0.20792560  0.31241864  0.06245048     0.00500
Br1332     Br  0.30039683  0.33265631  0.99931641    -0.03900
Br1333     Br  0.19260902  0.38510990  0.96566956     0.00600
Br1334     Br  0.25469598  0.26748179  0.99417699    -0.03200
Br1335     Br  0.18610089  0.31329811  0.02253134    -0.04100
Br1336     Br  0.32387261  0.32791688  0.03899015    -0.00100
C1337       C  0.89821296  0.44140593  0.80113474     0.01300
C1338       C  0.89775576  0.47050800  0.79699338     0.04200
C1339       C  0.90064428  0.47925217  0.77998149    -0.11900
C1340       C  0.90244199  0.45909953  0.76686069     0.23500
C1341       C  0.90313607  0.43007386  0.77088466    -0.12500
C1342       C  0.90142828  0.42121437  0.78799218     0.04900
C1343       C  0.90209360  0.46875606  0.74885597     0.27300
C1344       C  0.87605374  0.47253565  0.74050102    -0.13200
C1345       C  0.87516418  0.48512679  0.72427428     0.05400
C1346       C  0.90057289  0.49238643  0.71579868    -0.09100
C1347       C  0.92674829  0.48745987  0.72396411     0.06200
C1348       C  0.92741289  0.47628882  0.74058566    -0.13500
Br1349     Br  0.90639152  0.40259145  0.75286198    -0.05600
Br1350     Br  0.89064955  0.49868016  0.81426838     0.00100
Br1351     Br  0.83887114  0.49186864  0.71378072     0.00500
Br1352     Br  0.96290060  0.47202107  0.75237582    -0.03900
Br1353     Br  0.90460703  0.38146526  0.79330181     0.00600
Br1354     Br  0.90214197  0.51902790  0.77450943    -0.03200
Br1355     Br  0.84158601  0.46012197  0.75138577    -0.04100
Br1356     Br  0.96181652  0.49743726  0.71292425    -0.00100
C1357       C  0.10419511  0.36205726  0.89809891     0.01300
C1358       C  0.09733034  0.36178762  0.88054028     0.04200
C1359       C  0.07036901  0.37036128  0.87507563    -0.11900
C1360       C  0.05031132  0.38003345  0.88691419     0.23500
C1361       C  0.05729605  0.38140227  0.90430221    -0.12500
C1362       C  0.08398158  0.37207200  0.90994787     0.04900
C1363       C  0.02140469  0.38729169  0.88102282     0.27300
C1364       C  0.01598663  0.41383517  0.87357029    -0.13200
C1365       C  0.98901858  0.41989835  0.86696315     0.05400
C1366       C  0.96724307  0.39950564  0.86794270    -0.09100
C1367       C  0.97271944  0.37291700  0.87543832     0.06200
C1368       C  0.99982247  0.36677528  0.88180109    -0.13500
Br1369     Br  0.02988230  0.39549849  0.92039341    -0.05600
Br1370     Br  0.12469807  0.35055173  0.86357174     0.00100
Br1371     Br  0.98257998  0.45552389  0.85558549     0.00500
Br1372     Br  0.00780554  0.32989606  0.89118156    -0.03900
Br1373     Br  0.09146210  0.37112858  0.93410580     0.00600
Br1374     Br  0.06036507  0.36824934  0.85128128    -0.03200
Br1375     Br  0.04590331  0.44148116  0.87192648    -0.04100
Br1376     Br  0.94294711  0.34516612  0.87773686    -0.00100
C1377       C  0.79847420  0.21586875  0.90353172     0.01300
C1378       C  0.82549557  0.22770839  0.90655447     0.04200
C1379       C  0.83237780  0.25440103  0.89984676    -0.11900
C1380       C  0.81220759  0.26974009  0.89049053     0.23500
C1381       C  0.78478098  0.25882817  0.88829700    -0.12500
C1382       C  0.77797722  0.23176971  0.89457945     0.04900
C1383       C  0.82051701  0.29682153  0.88241301     0.27300
C1384       C  0.81891940  0.32220235  0.89166409    -0.13200
C1385       C  0.82977591  0.34735477  0.88467897     0.05400
C1386       C  0.84311045  0.34704216  0.86856567    -0.09100
C1387       C  0.84369322  0.32166141  0.85903941     0.06200
C1388       C  0.83205978  0.29673360  0.86590587    -0.13500
Br1389     Br  0.75672430  0.28115234  0.87661666    -0.05600
Br1390     Br  0.85412288  0.20701251  0.91890382     0.00100
Br1391     Br  0.82551410  0.38225982  0.89716905     0.00500
Br1392     Br  0.83284237  0.26194838  0.85304166    -0.03900
Br1393     Br  0.74029553  0.21707906  0.89118224     0.00600
Br1394     Br  0.86986886  0.26980445  0.90295587    -0.03200
Br1395     Br  0.80262565  0.32210104  0.91417177    -0.04100
Br1396     Br  0.86243471  0.31993247  0.83722626    -0.00100
C1397       C  0.06565066  0.00857421  0.80675301     0.01300
C1398       C  0.07098440  0.97968162  0.80345763     0.04200
C1399       C  0.06929897  0.96924571  0.78674461    -0.11900
C1400       C  0.06220259  0.98749544  0.77326690     0.23500
C1401       C  0.05605943  0.01610695  0.77656214    -0.12500
C1402       C  0.05791286  0.02670528  0.79325330     0.04900
C1403       C  0.06229943  0.97668920  0.75555850     0.27300
C1404       C  0.08773459  0.97627793  0.74622688    -0.13200
C1405       C  0.08825687  0.96491201  0.72969590     0.05400
C1406       C  0.06331575  0.95388282  0.72243451    -0.09100
C1407       C  0.03776814  0.95474676  0.73169236     0.06200
C1408       C  0.03728887  0.96606391  0.74825198    -0.13500
Br1409     Br  0.04528489  0.04070580  0.75809834    -0.05600
Br1410     Br  0.08260585  0.95452079  0.82150875     0.00100
Br1411     Br  0.12293785  0.96559712  0.71674214     0.00500
Br1412     Br  0.00256302  0.96670146  0.76114349    -0.03900
Br1413     Br  0.04903152  0.06591834  0.79756901     0.00600
Br1414     Br  0.07740624  0.92998850  0.78211915    -0.03200
Br1415     Br  0.12184764  0.99127817  0.75623316    -0.04100
Br1416     Br  0.00368117  0.93927868  0.72203955    -0.00100
C1417       C  0.86412561  0.10290141  0.90287209     0.01300
C1418       C  0.88761634  0.10487502  0.91393143     0.04200
C1419       C  0.91447844  0.09571161  0.90848845    -0.11900
C1420       C  0.91805868  0.08455095  0.89202972     0.23500
C1421       C  0.89474000  0.08252266  0.88099296    -0.12500
C1422       C  0.86781412  0.09143890  0.88639452     0.04900
C1423       C  0.94656823  0.07592607  0.88603510     0.27300
C1424       C  0.96450773  0.09603980  0.87845367    -0.13200
C1425       C  0.99141915  0.08801688  0.87254100     0.05400
C1426       C  0.00014001  0.05938902  0.87350053    -0.09100
C1427       C  0.98193913  0.03923215  0.88107581     0.06200
C1428       C  0.95552005  0.04766050  0.88764718    -0.13500
Br1429     Br  0.90000204  0.06807707  0.85825191    -0.05600
Br1430     Br  0.88378355  0.12169515  0.93619550     0.00100
Br1431     Br  0.01665372  0.11702188  0.86420779     0.00500
Br1432     Br  0.93145668  0.02061771  0.89900047    -0.03900
Br1433     Br  0.83595853  0.08667059  0.87127331     0.00600
Br1434     Br  0.94678845  0.09922659  0.92331044    -0.03200
Br1435     Br  0.95197507  0.13474720  0.87625724    -0.04100
Br1436     Br  0.99207470  0.99969620  0.88164909    -0.00100
C1437       C  0.16404488  0.24524567  0.90311867     0.01300
C1438       C  0.18360372  0.22857921  0.89395147     0.04200
C1439       C  0.17539980  0.20209923  0.88749772    -0.11900
C1440       C  0.14815500  0.19156586  0.89091468     0.23500
C1441       C  0.12922313  0.20727418  0.90097342    -0.12500
C1442       C  0.13687256  0.23430199  0.90681146     0.04900
C1443       C  0.13890285  0.16430196  0.88357204     0.27300
C1444       C  0.12228465  0.16410977  0.86873698    -0.13200
C1445       C  0.11119987  0.13852164  0.86255687     0.05400
C1446       C  0.11763802  0.11281448  0.87088638    -0.09100
C1447       C  0.13543035  0.11302357  0.88533976     0.06200
C1448       C  0.14547478  0.13880252  0.89186484    -0.13500
Br1449     Br  0.09242772  0.19181493  0.90629671    -0.05600
Br1450     Br  0.22208245  0.24128416  0.89080172     0.00100
Br1451     Br  0.08546453  0.13950253  0.84349784     0.00500
Br1452     Br  0.16744092  0.13947515  0.91253905    -0.03900
Br1453     Br  0.10900702  0.25674802  0.91866305     0.00600
Br1454     Br  0.20107046  0.18054159  0.87350551    -0.03200
Br1455     Br  0.11406655  0.19923659  0.85722271    -0.04100
Br1456     Br  0.14716414  0.07813878  0.89599768    -0.00100
C1457       C  0.39940967  0.44693872  0.70385935     0.01300
C1458       C  0.40125278  0.47656367  0.70601486     0.04200
C1459       C  0.40307433  0.48819712  0.72243785    -0.11900
C1460       C  0.40336488  0.47032790  0.73673911     0.23500
C1461       C  0.40241281  0.44076773  0.73462358    -0.12500
C1462       C  0.40015240  0.42906019  0.71823144     0.04900
C1463       C  0.40328319  0.48251163  0.75409473     0.27300
C1464       C  0.42891651  0.48893250  0.76231223    -0.13200
C1465       C  0.42872949  0.49882398  0.77919120     0.05400
C1466       C  0.40285082  0.50190021  0.78797940    -0.09100
C1467       C  0.37715363  0.49583251  0.77958480     0.06200
C1468       C  0.37740711  0.48668399  0.76257896    -0.13500
Br1469     Br  0.40419929  0.41646472  0.75432789    -0.05600
Br1470     Br  0.39939774  0.50156075  0.68662843     0.00100
Br1471     Br  0.46392049  0.50926317  0.78992011     0.00500
Br1472     Br  0.34230663  0.47990306  0.75073375    -0.03900
Br1473     Br  0.39890405  0.38850739  0.71555596     0.00600
Br1474     Br  0.40446663  0.52867123  0.72549960    -0.03200
Br1475     Br  0.46418024  0.48427530  0.75028908    -0.04100
Br1476     Br  0.34157089  0.49798079  0.79158434    -0.00100
C1477       C  0.24319530  0.37597292  0.89081710     0.01300
C1478       C  0.27169315  0.36857503  0.89382884     0.04200
C1479       C  0.29358008  0.38536734  0.88714034    -0.11900
C1480       C  0.28709422  0.41010513  0.87800357     0.23500
C1481       C  0.25872289  0.41763282  0.87507520    -0.12500
C1482       C  0.23677958  0.40035593  0.88121880     0.04900
C1483       C  0.31008644  0.42836953  0.87148723     0.27300
C1484       C  0.32129804  0.44995427  0.88182892    -0.13200
C1485       C  0.34219192  0.46817858  0.87533574     0.05400
C1486       C  0.35140893  0.46516891  0.85838836    -0.09100
C1487       C  0.34066724  0.44317583  0.84819427     0.06200
C1488       C  0.32004028  0.42474004  0.85475291    -0.13500
Br1489     Br  0.25009781  0.45187481  0.86276903    -0.05600
Br1490     Br  0.28103964  0.33676202  0.90818522     0.00100
Br1491     Br  0.35699407  0.49826393  0.88932995     0.00500
Br1492     Br  0.30456864  0.39508217  0.84071310    -0.03900
Br1493     Br  0.19804943  0.40958187  0.87580164     0.00600
Br1494     Br  0.33254940  0.37474725  0.89055570    -0.03200
Br1495     Br  0.30684686  0.45537958  0.90455497    -0.04100
Br1496     Br  0.35452410  0.43816150  0.82532323    -0.00100
C1497       C  0.56231971  0.00471666  0.70132420     0.01300
C1498       C  0.56998642  0.97604627  0.70350036     0.04200
C1499       C  0.56974419  0.96390472  0.71983371    -0.11900
C1500       C  0.56253596  0.98050062  0.73404473     0.23500
C1501       C  0.55438025  0.00888795  0.73187265    -0.12500
C1502       C  0.55389797  0.02088836  0.71552317     0.04900
C1503       C  0.56463224  0.96857156  0.75139983     0.27300
C1504       C  0.54023782  0.95864300  0.75978054    -0.13200
C1505       C  0.54209738  0.94867383  0.77659242     0.05400
C1506       C  0.56841882  0.94850497  0.78500151    -0.09100
C1507       C  0.59281809  0.95850458  0.77659539     0.06200
C1508       C  0.59089910  0.96854999  0.75982302    -0.13500
Br1509     Br  0.54447646  0.03139594  0.75146918    -0.05600
Br1510     Br  0.58291122  0.95375372  0.68442916     0.00100
Br1511     Br  0.50865441  0.93480576  0.78793289     0.00500
Br1512     Br  0.62400778  0.98346366  0.74856491    -0.03900
Br1513     Br  0.54062137  0.05914958  0.71261111     0.00600
Br1514     Br  0.57986389  0.92468546  0.72290698    -0.03200
Br1515     Br  0.50422891  0.95943226  0.74827800    -0.04100
Br1516     Br  0.62852132  0.96056852  0.78845446    -0.00100
C1517       C  0.63109980  0.98378969  0.85477810     0.01300
C1518       C  0.66058150  0.97894856  0.85370584     0.04200
C1519       C  0.67947919  0.99689264  0.86227278    -0.11900
C1520       C  0.66930485  0.02077193  0.87096806     0.23500
C1521       C  0.64008758  0.02627974  0.87160026    -0.12500
C1522       C  0.62096045  0.00776004  0.86361707     0.04900
C1523       C  0.68956091  0.04031772  0.87918476     0.27300
C1524       C  0.69612885  0.03709458  0.89651747    -0.13200
C1525       C  0.71568958  0.05540195  0.90427049     0.05400
C1526       C  0.72895192  0.07686936  0.89463294    -0.09100
C1527       C  0.72305320  0.07936474  0.87709967     0.06200
C1528       C  0.70311407  0.06134179  0.86945287    -0.13500
Br1529     Br  0.62639938  0.05907814  0.88364642    -0.05600
Br1530     Br  0.67575876  0.94777480  0.84076566     0.00100
Br1531     Br  0.72347190  0.05132961  0.92820613     0.00500
Br1532     Br  0.69451250  0.06504347  0.84555753    -0.03900
Br1533     Br  0.58106413  0.01647848  0.86395245     0.00600
Br1534     Br  0.71939131  0.98825946  0.86279678    -0.03200
Br1535     Br  0.67842409  0.00726597  0.90949804    -0.04100
Br1536     Br  0.74386810  0.10585312  0.86319269    -0.00100
C1537       C  0.26813423  0.80633882  0.95730424     0.01300
C1538       C  0.26724789  0.83125018  0.96722607     0.04200
C1539       C  0.25372628  0.83112291  0.98319051    -0.11900
C1540       C  0.24172707  0.80599639  0.98960594     0.23500
C1541       C  0.24324706  0.78094976  0.97995771    -0.12500
C1542       C  0.25625152  0.78113750  0.96381580     0.04900
C1543       C  0.22898154  0.80580263  0.00692448     0.27300
C1544       C  0.24663288  0.80321642  0.02123114    -0.13200
C1545       C  0.23535091  0.80586395  0.03771459     0.05400
C1546       C  0.20594373  0.80980035  0.04007150    -0.09100
C1547       C  0.18809323  0.81137287  0.02568904     0.06200
C1548       C  0.19965561  0.80963247  0.00916566    -0.13500
Br1549     Br  0.22779305  0.74633780  0.98905465    -0.05600
Br1550     Br  0.28366667  0.86602292  0.95888961     0.00100
Br1551     Br  0.26093083  0.80645815  0.05686211     0.00500
Br1552     Br  0.17545606  0.81252033  0.98950908    -0.03900
Br1553     Br  0.25922329  0.74638885  0.95112328     0.00600
Br1554     Br  0.25122940  0.86553465  0.99631358    -0.03200
Br1555     Br  0.28649088  0.79608910  0.01810814    -0.04100
Br1556     Br  0.14769748  0.81490937  0.02847678    -0.00100
C1557       C  0.23978863  0.87294925  0.89199714     0.01300
C1558       C  0.23738751  0.88047971  0.87467784     0.04200
C1559       C  0.21884528  0.90230631  0.86975086    -0.11900
C1560       C  0.20252102  0.91649553  0.88207966     0.23500
C1561       C  0.20502152  0.90909924  0.89935222    -0.12500
C1562       C  0.22326519  0.88713360  0.90427704     0.04900
C1563       C  0.18122721  0.93786883  0.87690512     0.27300
C1564       C  0.18924769  0.96609939  0.87395556    -0.13200
C1565       C  0.16874468  0.98633885  0.86943458     0.05400
C1566       C  0.13973456  0.97871703  0.86878817    -0.09100
C1567       C  0.13181986  0.95037102  0.87208636     0.06200
C1568       C  0.15261551  0.92995652  0.87565086    -0.13500
Br1569     Br  0.18321751  0.92919094  0.91624055    -0.05600
Br1570     Br  0.25983890  0.86144766  0.85768223     0.00100
Br1571     Br  0.18094541  0.02458333  0.86472489     0.00500
Br1572     Br  0.14215359  0.89077614  0.87867112    -0.03900
Br1573     Br  0.22376284  0.87506725  0.92772008     0.00600
Br1574     Br  0.21576992  0.91298599  0.84614006    -0.03200
Br1575     Br  0.22836067  0.97703512  0.87657850    -0.04100
Br1576     Br  0.09271963  0.93867822  0.87119970    -0.00100
C1577       C  0.36950660  0.85325680  0.88938846     0.01300
C1578       C  0.39651456  0.84179222  0.89258878     0.04200
C1579       C  0.42056107  0.85395737  0.88499824    -0.11900
C1580       C  0.41774457  0.87771807  0.87432237     0.23500
C1581       C  0.39094355  0.88972063  0.87152449    -0.12500
C1582       C  0.36681681  0.87744498  0.87897671     0.04900
C1583       C  0.44315744  0.88982488  0.86602636     0.27300
C1584       C  0.45954596  0.91011137  0.87461422    -0.13200
C1585       C  0.48572869  0.91877271  0.86785533     0.05400
C1586       C  0.49517759  0.90773492  0.85211402    -0.09100
C1587       C  0.47763021  0.88880911  0.84299549     0.06200
C1588       C  0.45186393  0.87967224  0.85005059    -0.13500
Br1589     Br  0.38753850  0.92308901  0.85755650    -0.05600
Br1590     Br  0.40064236  0.80855907  0.90662844     0.00100
Br1591     Br  0.50928572  0.94380101  0.88110713     0.00500
Br1592     Br  0.42858524  0.85271355  0.83804625    -0.03900
Br1593     Br  0.33024415  0.89453695  0.87544333     0.00600
Br1594     Br  0.45751228  0.83794469  0.88898559    -0.03200
Br1595     Br  0.44613673  0.92536291  0.89590844    -0.04100
Br1596     Br  0.48822261  0.87565340  0.82061039    -0.00100
C1597       C  0.36496275  0.60142097  0.85689552     0.01300
C1598       C  0.34748672  0.61881638  0.84676207     0.04200
C1599       C  0.33740324  0.64468999  0.85321067    -0.11900
C1600       C  0.34471535  0.65336364  0.86976799     0.23500
C1601       C  0.36203020  0.63603147  0.87992498    -0.12500
C1602       C  0.37192520  0.61000777  0.87361312     0.04900
C1603       C  0.33498393  0.68115720  0.87633898     0.27300
C1604       C  0.35036127  0.70583140  0.87240022    -0.13200
C1605       C  0.34143036  0.73217426  0.87872802     0.05400
C1606       C  0.31754896  0.73388255  0.88942661    -0.09100
C1607       C  0.30215812  0.70921545  0.89337909     0.06200
C1608       C  0.31071683  0.68290607  0.88671879    -0.13500
Br1609     Br  0.37310244  0.64866602  0.90229181    -0.05600
Br1610     Br  0.33622279  0.60687099  0.82427373     0.00100
Br1611     Br  0.36128205  0.76614336  0.87216854     0.00500
Br1612     Br  0.28947100  0.64913122  0.89188303    -0.03900
Br1613     Br  0.39631893  0.58715902  0.88775974     0.00600
Br1614     Br  0.31388588  0.66864024  0.83929047    -0.03200
Br1615     Br  0.38396168  0.70332752  0.85853419    -0.04100
Br1616     Br  0.27011653  0.71132330  0.90845897    -0.00100
C1617       C  0.70045214  0.65479318  0.96138972     0.01300
C1618       C  0.68303331  0.64673373  0.97521844     0.04200
C1619       C  0.69361464  0.64780309  0.99194373    -0.11900
C1620       C  0.72183804  0.65585310  0.99490770     0.23500
C1621       C  0.73919953  0.66401053  0.98123879    -0.12500
C1622       C  0.72853017  0.66388674  0.96455661     0.04900
C1623       C  0.73405948  0.65345149  0.01220522     0.27300
C1624       C  0.73439993  0.67691374  0.02321111    -0.13200
C1625       C  0.74632687  0.67443494  0.03954035     0.05400
C1626       C  0.75792052  0.64838237  0.04493443    -0.09100
C1627       C  0.75787805  0.62500872  0.03373967     0.06200
C1628       C  0.74596665  0.62759983  0.01743067    -0.13500
Br1629     Br  0.77821355  0.67390173  0.98542157    -0.05600
Br1630     Br  0.64465391  0.63417348  0.97153705     0.00100
Br1631     Br  0.74795886  0.70727567  0.05412043     0.00500
Br1632     Br  0.74572258  0.59569604  0.00209196    -0.03900
Br1633     Br  0.75373148  0.67405579  0.94614698     0.00600
Br1634     Br  0.66977334  0.63765194  0.01092942    -0.03200
Br1635     Br  0.71862502  0.71244165  0.01578071    -0.04100
Br1636     Br  0.77272621  0.58887739  0.04083973    -0.00100
C1637       C  0.74579948  0.59303646  0.89842908     0.01300
C1638       C  0.75204364  0.58789762  0.88115679     0.04200
C1639       C  0.77202655  0.56716247  0.87671141    -0.11900
C1640       C  0.78621558  0.55180106  0.88946539     0.23500
C1641       C  0.78085701  0.55767560  0.90672912    -0.12500
C1642       C  0.76059987  0.57817931  0.91122464     0.04900
C1643       C  0.80467569  0.52776641  0.88455763     0.27300
C1644       C  0.79230154  0.50141060  0.88078434    -0.13200
C1645       C  0.80899093  0.47920862  0.87443297     0.05400
C1646       C  0.83832320  0.48309652  0.87207530    -0.09100
C1647       C  0.85093593  0.50916192  0.87655106     0.06200
C1648       C  0.83406016  0.53153154  0.88264985    -0.13500
Br1649     Br  0.80038680  0.53663821  0.92414940    -0.05600
Br1650     Br  0.73152828  0.60734025  0.86344539     0.00100
Br1651     Br  0.79156214  0.44320786  0.86948585     0.00500
Br1652     Br  0.85091459  0.56764110  0.88792599    -0.03900
Br1653     Br  0.75329460  0.58593438  0.93495471     0.00600
Br1654     Br  0.77869347  0.55830967  0.85308318    -0.03200
Br1655     Br  0.75220900  0.49602013  0.88413639    -0.04100
Br1656     Br  0.89102615  0.51497585  0.87339578    -0.00100
C1657       C  0.60928661  0.60287949  0.88966902     0.01300
C1658       C  0.60549837  0.60340301  0.87177143     0.04200
C1659       C  0.58150253  0.59070442  0.86442888    -0.11900
C1660       C  0.56040803  0.57883331  0.87483902     0.23500
C1661       C  0.56408964  0.57808580  0.89259021    -0.12500
C1662       C  0.58869932  0.58945225  0.89997868     0.04900
C1663       C  0.53347081  0.56889683  0.86721563     0.27300
C1664       C  0.51211628  0.58865039  0.86341420    -0.13200
C1665       C  0.48619713  0.57947720  0.85663159     0.05400
C1666       C  0.48139065  0.55036356  0.85376920    -0.09100
C1667       C  0.50291446  0.53062440  0.85739793     0.06200
C1668       C  0.52899178  0.53992743  0.86399579    -0.13500
Br1669     Br  0.53489625  0.56200216  0.90679791    -0.05600
Br1670     Br  0.63150351  0.62342025  0.85706538     0.00100
Br1671     Br  0.45681555  0.60694125  0.85225563     0.00500
Br1672     Br  0.55876121  0.51314252  0.86855015    -0.03900
Br1673     Br  0.59418300  0.58542767  0.92421272     0.00600
Br1674     Br  0.57701694  0.58988736  0.84002068    -0.03200
Br1675     Br  0.51829362  0.62835132  0.86786234    -0.04100
Br1676     Br  0.49715960  0.49097672  0.85272784    -0.00100
C1677       C  0.66027324  0.72186945  0.88926057     0.01300
C1678       C  0.66774424  0.72731949  0.87212998     0.04200
C1679       C  0.65903800  0.75256154  0.86422829    -0.11900
C1680       C  0.64252212  0.77221680  0.87323477     0.23500
C1681       C  0.63574675  0.76734305  0.89041219    -0.12500
C1682       C  0.64477221  0.74238192  0.89847585     0.04900
C1683       C  0.63291310  0.79852929  0.86483117     0.27300
C1684       C  0.64966162  0.82306445  0.86584757    -0.13200
C1685       C  0.63954860  0.84873325  0.85924118     0.05400
C1686       C  0.61319895  0.84964275  0.85088882    -0.09100
C1687       C  0.59696069  0.82475911  0.84922502     0.06200
C1688       C  0.60665543  0.79931084  0.85639593    -0.13500
Br1689     Br  0.61433702  0.79527053  0.90289259    -0.05600
Br1690     Br  0.68865805  0.69994378  0.85895996     0.00100
Br1691     Br  0.66198636  0.88246474  0.86165727     0.00500
Br1692     Br  0.58365677  0.76567950  0.85510486    -0.03900
Br1693     Br  0.63711147  0.73742106  0.92243801     0.00600
Br1694     Br  0.66980058  0.76060474  0.84104065    -0.03200
Br1695     Br  0.68648111  0.82128516  0.87635019    -0.04100
Br1696     Br  0.56045857  0.82586360  0.83821442    -0.00100
loop_ 
_geom_bond_atom_site_label_1 
_geom_bond_atom_site_label_2 
_geom_bond_distance 
_geom_bond_site_symmetry_2 
_ccdc_geom_bond_type 
In1           O3   2.231       .  S
In1           O4   2.247       .  S
In1          O12   2.236       .  S
In1           O6   2.252       .  S
In1           O8   2.243       .  S
In1           O9   2.250       .  S
In1          O10   2.239       .  S
In1          O13   2.229       .  S
C2            O8   1.263       .  A
C2           O10   1.259       .  A
C2         C1657   1.487       .  S
O3           C11   1.261       .  A
O4           C11   1.264       .  A
C5           O12   1.258       .  A
C5            O6   1.260       .  A
C5         C1617   1.484       .  S
C7            O9   1.264       .  A
C7           O13   1.260       .  A
C7         C1637   1.478       .  S
C11        C1677   1.483       .  S
In14         O16   2.243       .  S
In14         O17   2.261       .  S
In14         O25   2.249       .  S
In14         O19   2.251       .  S
In14         O21   2.249       .  S
In14         O22   2.256       .  S
In14         O23   2.234       .  S
In14         O26   2.233       .  S
C15          O21   1.263       .  A
C15          O23   1.260       .  A
C15        C1577   1.476       .  S
O16          C24   1.259       .  A
O17          C24   1.262       .  A
C18          O25   1.261       .  A
C18          O19   1.262       .  A
C18        C1537   1.484       .  S
C20          O22   1.264       .  A
C20          O26   1.260       .  A
C20        C1557   1.479       .  S
C24        C1606   1.477       .  S
In27         O29   2.237       .  S
In27         O30   2.242       .  S
In27         O38   2.240       .  S
In27         O32   2.236       .  S
In27         O34   2.240       .  S
In27         O35   2.255       .  S
In27         O36   2.237       .  S
In27         O39   2.229       .  S
C28          O34   1.262       .  A
C28          O36   1.260       .  A
C28        C1686   1.472       .  S
O29          C37   1.258       .  A
O30          C37   1.261       .  A
C31          O38   1.260       .  A
C31          O32   1.260       .  A
C31        C1506   1.472       .  S
C33          O35   1.262       .  A
C33          O39   1.258       .  A
C33        C1586   1.482       .  S
C37        C1517   1.479       .  S
In40         O42   2.228       .  S
In40         O43   2.247       .  S
In40         O51   2.245       .  S
In40         O45   2.238       .  S
In40         O47   2.249       .  S
In40         O48   2.250       .  S
In40         O49   2.242       .  S
In40         O52   2.235       .  S
C41          O47   1.259       .  A
C41          O49   1.257       .  A
C41        C1597   1.481       .  S
O42          C50   1.261       .  A
O43          C50   1.263       .  A
C44          O51   1.262       .  A
C44          O45   1.260       .  A
C44        C1466   1.478       .  S
C46          O48   1.261       .  A
C46          O52   1.259       .  A
C46        C1666   1.477       .  S
C50        C1486   1.469       .  S
In53         O55   2.236       .  S
In53         O56   2.252       .  S
In53         O64   2.237       .  S
In53         O58   2.233       .  S
In53         O60   2.241       .  S
In53         O61   2.257       .  S
In53         O62   2.229       .  S
In53         O65   2.232       .  S
C54          O60   1.261       .  A
C54          O62   1.259       .  A
C54        C1446   1.478       .  S
O55          C63   1.260       .  A
O56          C63   1.264       .  A
C57          O64   1.263       .  A
C57          O58   1.262       .  A
C57        C1397   1.479       .  S
C59          O61   1.264       .  A
C59          O65   1.257       .  A
C59        C1566   1.486   1_545  S
C63        C1426   1.487       .  S
In66         O68   2.248       .  S
In66         O69   2.234       .  S
In66         O77   2.247       .  S
In66         O71   2.254       .  S
In66         O73   2.256       .  S
In66         O74   2.252       .  S
In66         O75   2.237       .  S
In66         O78   2.251       .  S
C67          O73   1.260       .  A
C67          O75   1.258       .  A
C67        C1386   1.482       .  S
O68          C76   1.262       .  A
O69          C76   1.260       .  A
C70          O77   1.260       .  A
C70          O71   1.260       .  A
C70        C1337   1.485       .  S
C72          O74   1.257       .  A
C72          O78   1.259       .  A
C72        C1646   1.479       .  S
C76        C1366   1.478       .  S
In79         O81   2.237       .  S
In79         O82   2.241       .  S
In79         O90   2.233       .  S
In79         O84   2.253       .  S
In79         O86   2.258       .  S
In79         O87   2.227       .  S
In79         O88   2.235       .  S
In79         O91   2.240       .  S
C80          O86   1.263       .  A
C80          O88   1.256       .  A
C80        C1357   1.487       .  S
O81          C89   1.259       .  A
O82          C89   1.259       .  A
C83          O90   1.259       .  A
C83          O84   1.263       .  A
C83        C1317   1.477       .  S
C85          O87   1.262       .  A
C85          O91   1.263       .  A
C85        C1437   1.478       .  S
C89        C1477   1.474       .  S
In92         O94   2.248       .  S
In92         O95   2.249       .  S
In92        O103   2.245       .  S
In92         O97   2.242       .  S
In92         O99   2.254       .  S
In92        O100   2.242       .  S
In92        O101   2.239       .  S
In92        O104   2.238       .  S
C93          O99   1.261       .  A
C93         O101   1.258       .  A
C93        C1417   1.483       .  S
O94         C102   1.258       .  A
O95         C102   1.259       .  A
C96         O103   1.261       .  A
C96          O97   1.260       .  A
C96        C1297   1.474       .  S
C98         O100   1.261       .  A
C98         O104   1.261       .  A
C98        C1377   1.481       .  S
C102       C1526   1.477       .  S
In105       O107   2.233       .  S
In105       O108   2.228       .  S
In105       O116   2.249       .  S
In105       O110   2.251       .  S
In105       O112   2.251       .  S
In105       O113   2.235       .  S
In105       O114   2.240       .  S
In105       O117   2.242       .  S
C106        O112   1.262       .  A
C106        O114   1.258       .  A
C106       C1257   1.473       .  S
O107        C115   1.260       .  A
O108        C115   1.259       .  A
C109        O116   1.261       .  A
C109        O110   1.261       .  A
C109       C1217   1.485       .  S
C111        O113   1.259       .  A
C111        O117   1.261       .  A
C111       C1277   1.479       .  S
C115       C1246   1.462       .  S
In118       O120   2.225       .  S
In118       O121   2.247       .  S
In118       O129   2.239       .  S
In118       O123   2.237       .  S
In118       O125   2.243       .  S
In118       O126   2.236       .  S
In118       O127   2.226       .  S
In118       O130   2.223       .  S
C119        O125   1.261       .  A
C119        O127   1.259       .  A
C119       C1286   1.466       .  S
O120        C128   1.259       .  A
O121        C128   1.260       .  A
C122        O129   1.260       .  A
C122        O123   1.260       .  A
C122       C1166   1.474       .  S
C124        O126   1.262       .  A
C124        O130   1.259       .  A
C124       C1177   1.465       .  S
C128       C1197   1.473       .  S
In131       O133   2.234       .  S
In131       O134   2.255       .  S
In131       O142   2.261       .  S
In131       O136   2.238       .  S
In131       O138   2.240       .  S
In131       O139   2.251       .  S
In131       O140   2.253       .  S
In131       O143   2.229       .  S
C132        O138   1.260       .  A
C132        O140   1.261       .  A
C132       C1206   1.472       .  S
O133        C141   1.260       .  A
O134        C141   1.263       .  A
C135        O142   1.261       .  A
C135        O136   1.260       .  A
C135       C1097   1.482       .  S
C137        O139   1.263       .  A
C137        O143   1.259       .  A
C137       C1146   1.478       .  S
C141       C1117   1.477       .  S
In144       O146   2.243       .  S
In144       O147   2.243       .  S
In144       O155   2.242       .  S
In144       O149   2.260       .  S
In144       O151   2.249       .  S
In144       O152   2.244       .  S
In144       O153   2.235       .  S
In144       O156   2.240       .  S
C145        O151   1.264       .  A
C145        O153   1.259       .  A
C145       C1137   1.473       .  S
O146        C154   1.261       .  A
O147        C154   1.260       .  A
C148        O155   1.258       .  A
C148        O149   1.262       .  A
C148       C1057   1.486       .  S
C150        O152   1.260       .  A
C150        O156   1.257       .  A
C150       C1077   1.484       .  S
C154       C1266   1.478       .  S
In157       O159   2.238       .  S
In157       O160   2.240       .  S
In157       O168   2.248       .  S
In157       O162   2.256       .  S
In157       O164   2.255       .  S
In157       O165   2.244       .  S
In157       O166   2.240       .  S
In157       O169   2.241       .  S
C158        O164   1.263       .  A
C158        O166   1.261       .  A
C158       C1017   1.480       .  S
O159        C167   1.261       .  A
O160        C167   1.261       .  A
C161        O168   1.258       .  A
C161        O162   1.261       .  A
C161       C1006   1.482       .  S
C163        O165   1.259       .  A
C163        O169   1.260       .  A
C163       C1086   1.480       .  S
C167       C1037   1.480       .  S
In170       O172   2.240       .  S
In170       O173   2.249       .  S
In170       O181   2.235       .  S
In170       O175   2.246       .  S
In170       O177   2.248       .  S
In170       O178   2.244       .  S
In170       O179   2.238       .  S
In170       O182   2.235       .  S
C171        O177   1.260       .  A
C171        O179   1.259       .  A
C171       C1046   1.471       .  S
O172        C180   1.260       .  A
O173        C180   1.260       .  A
C174        O181   1.259       .  A
C174        O175   1.261       .  A
C174        C966   1.473       .  S
C176        O178   1.260       .  A
C176        O182   1.258       .  A
C176        C986   1.469   1_455  S
C180       C1126   1.472       .  S
In183       O185   2.229       .  S
In183       O186   2.246   1_545  S
In183       O194   2.240       .  S
In183       O188   2.234       .  S
In183       O190   2.252       .  S
In183       O191   2.234       .  S
In183       O192   2.229       .  S
In183       O195   2.230       .  S
C184        O190   1.260       .  A
C184        O192   1.258       .  A
C184        C946   1.483       .  S
O185        C193   1.258   1_545  A
O186        C193   1.259       .  A
C187        O194   1.261       .  A
C187        O188   1.262       .  A
C187        C917   1.478   1_545  S
C189        O191   1.262       .  A
C189        O195   1.262       .  A
C189       C1026   1.470       .  S
C193       C1237   1.473       .  S
In196       O198   2.232       .  S
In196       O199   2.239       .  S
In196       O207   2.237       .  S
In196       O201   2.236       .  S
In196       O203   2.241       .  S
In196       O204   2.249       .  S
In196       O205   2.234       .  S
In196       O208   2.228       .  S
C197        O203   1.262       .  A
C197        O205   1.260       .  A
C197        C977   1.474       .  S
O198        C206   1.260       .  A
O199        C206   1.262       .  A
C200        O207   1.260       .  A
C200        O201   1.261       .  A
C200        C897   1.471       .  S
C202        O204   1.260       .  A
C202        O208   1.257       .  A
C202       C1186   1.470       .  S
C206        C937   1.479       .  S
In209       O211   2.248       .  S
In209       O212   2.238       .  S
In209       O220   2.235       .  S
In209       O214   2.251       .  S
In209       O216   2.266       .  S
In209       O217   2.249       .  S
In209       O218   2.234       .  S
In209       O221   2.246       .  S
C210        O216   1.262       .  A
C210        O218   1.259       .  A
C210        C866   1.487       .  S
O211        C219   1.261       .  A
O212        C219   1.261       .  A
C213        O220   1.260       .  A
C213        O214   1.262       .  A
C213       C1626   1.480       .  S
C215        O217   1.260       .  A
C215        O221   1.261       .  A
C215        C846   1.478       .  S
C219        C886   1.481       .  S
In222       O224   2.241       .  S
In222       O225   2.255       .  S
In222       O233   2.233       .  S
In222       O227   2.238       .  S
In222       O229   2.250       .  S
In222       O230   2.242       .  S
In222       O231   2.229       .  S
In222       O234   2.243       .  S
C223        O229   1.261       .  A
C223        O231   1.259       .  A
C223        C817   1.480       .  S
O224        C232   1.259       .  A
O225        C232   1.262       .  A
C226        O233   1.261       .  A
C226        O227   1.262       .  A
C226        C957   1.473       .  S
C228        O230   1.263       .  A
C228        O234   1.261       .  A
C228        C857   1.482   1_455  S
C232        C806   1.485       .  S
In235       O237   2.241       .  S
In235       O238   2.250       .  S
In235       O246   2.246       .  S
In235       O240   2.249       .  S
In235       O242   2.246       .  S
In235       O243   2.238       .  S
In235       O244   2.240       .  S
In235       O247   2.241       .  S
C236        O242   1.262       .  A
C236        O244   1.261       .  A
C236        C877   1.486       .  S
O237        C245   1.257       .  A
O238        C245   1.258       .  A
C239        O246   1.259       .  A
C239        O240   1.260       .  A
C239        C926   1.478       .  S
C241        O243   1.260       .  A
C241        O247   1.260       .  A
C241        C777   1.484       .  S
C245        C757   1.475       .  S
In248       O250   2.244       .  S
In248       O251   2.238       .  S
In248       O259   2.238       .  S
In248       O253   2.261       .  S
In248       O255   2.262       .  S
In248       O256   2.248       .  S
In248       O257   2.236       .  S
In248       O260   2.237       .  S
C249        O255   1.263       .  A
C249        O257   1.259       .  A
C249        C786   1.488       .  S
O250        C258   1.262       .  A
O251        C258   1.260       .  A
C252        O259   1.259       .  A
C252        O253   1.263       .  A
C252       C1546   1.486       .  S
C254        O256   1.259       .  A
C254        O260   1.260       .  A
C254        C746   1.477       .  S
C258        C826   1.482       .  S
In261       O263   2.240       .  S
In261       O264   2.251       .  S
In261       O272   2.234       .  S
In261       O266   2.243       .  S
In261       O268   2.248       .  S
In261       O269   2.236       .  S
In261       O270   2.239       .  S
In261       O273   2.237       .  S
C262        O268   1.261       .  A
C262        O270   1.259       .  A
C262        C717   1.486       .  S
O263        C271   1.258       .  A
O264        C271   1.260       .  A
C265        O272   1.260       .  A
C265        O266   1.261       .  A
C265       C1326   1.480       .  S
C267        O269   1.262       .  A
C267        O273   1.262       .  A
C267        C706   1.479       .  S
C271        C797   1.473       .  S
In274       O276   2.223       .  S
In274       O277   2.258       .  S
In274       O285   2.243   1_545  S
In274       O279   2.242       .  S
In274       O281   2.249       .  S
In274       O282   2.247   1_545  S
In274       O283   2.235       .  S
In274       O286   2.231       .  S
C275        O281   1.261       .  A
C275        O283   1.259       .  A
C275        C697   1.479       .  S
O276        C284   1.257       .  A
O277        C284   1.263       .  A
C278        O285   1.258   1_545  A
C278        O279   1.262       .  A
C278       C1066   1.487       .  S
C280        O282   1.263       .  A
C280        O286   1.261   1_565  A
C280        C737   1.482       .  S
C284        C686   1.473       .  S
In287       O289   2.247       .  S
In287       O290   2.245       .  S
In287       O298   2.244       .  S
In287       O292   2.236       .  S
In287       O294   2.257       .  S
In287       O295   2.253       .  S
In287       O296   2.235       .  S
In287       O299   2.244       .  S
C288        O294   1.260       .  A
C288        O296   1.259       .  A
C288        C657   1.485       .  S
O289        C297   1.261       .  A
O290        C297   1.260       .  A
C291        O298   1.262       .  A
C291        O292   1.261       .  A
C291       C1157   1.477       .  S
C293        O295   1.260       .  A
C293        O299   1.259       .  A
C293        C837   1.487       .  S
C297        C726   1.482       .  S
In300       O302   2.231       .  S
In300       O303   2.251       .  S
In300       O311   2.235       .  S
In300       O305   2.236       .  S
In300       O307   2.240       .  S
In300       O308   2.247       .  S
In300       O309   2.226       .  S
In300       O312   2.239       .  S
C301        O307   1.261       .  A
C301        O309   1.259       .  A
C301        C677   1.471       .  S
O302        C310   1.260       .  A
O303        C310   1.263       .  A
C304        O311   1.262       .  A
C304        O305   1.261       .  A
C304       C1306   1.478       .  S
C306        O308   1.262       .  A
C306        O312   1.260       .  A
C306        C666   1.482       .  S
C310        C766   1.475       .  S
In313       O315   2.223       .  S
In313       O316   2.262       .  S
In313       O324   2.245       .  S
In313       O318   2.254       .  S
In313       O320   2.250       .  S
In313       O321   2.243       .  S
In313       O322   2.231       .  S
In313       O325   2.233       .  S
C314        O320   1.262       .  A
C314        O322   1.259       .  A
C314        C617   1.474       .  S
O315        C323   1.259       .  A
O316        C323   1.263       .  A
C317        O324   1.262       .  A
C317        O318   1.260       .  A
C317       C1226   1.490       .  S
C319        O321   1.262       .  A
C319        O325   1.260       .  A
C319        C646   1.473       .  S
C323        C606   1.480       .  S
In326       O328   2.245       .  S
In326       O329   2.243       .  S
In326       O337   2.256       .  S
In326       O331   2.251       .  S
In326       O333   2.251       .  S
In326       O334   2.250       .  S
In326       O335   2.246       .  S
In326       O338   2.243       .  S
C327        O333   1.260       .  A
C327        O335   1.259       .  A
C327        C637   1.474       .  S
O328        C336   1.260       .  A
O329        C336   1.260       .  A
C330        O337   1.260       .  A
C330        O331   1.260       .  A
C330       C1346   1.486       .  S
C332        O334   1.259       .  A
C332        O338   1.260       .  A
C332        C557   1.476       .  S
C336        C577   1.479       .  S
In339       O341   2.236       .  S
In339       O342   2.237       .  S
In339       O350   2.251       .  S
In339       O344   2.251       .  S
In339       O346   2.253       .  S
In339       O347   2.241       .  S
In339       O348   2.230       .  S
In339       O351   2.234       .  S
C340        O346   1.264       .  A
C340        O348   1.259       .  A
C340        C546   1.476       .  S
O341        C349   1.261       .  A
O342        C349   1.261       .  A
C343        O350   1.259       .  A
C343        O344   1.261       .  A
C343       C1406   1.477       .  S
C345        O347   1.261       .  A
C345        O351   1.259       .  A
C345        C526   1.473       .  S
C349        C626   1.480   1_455  S
In352       O354   2.230       .  S
In352       O355   2.260       .  S
In352       O363   2.238       .  S
In352       O357   2.240       .  S
In352       O359   2.255       .  S
In352       O360   2.241       .  S
In352       O361   2.226       .  S
In352       O364   2.238       .  S
C353        O359   1.260       .  A
C353        O361   1.257       .  A
C353        C586   1.468       .  S
O354        C362   1.260       .  A
O355        C362   1.263       .  A
C356        O363   1.261       .  A
C356        O357   1.261       .  A
C356       C1106   1.479       .  S
C358        O360   1.261       .  A
C358        O364   1.259       .  A
C358        C537   1.471       .  S
C362        C497   1.481       .  S
In365       O367   2.245       .  S
In365       O368   2.241       .  S
In365       O376   2.257       .  S
In365       O370   2.244       .  S
In365       O372   2.244       .  S
In365       O373   2.252       .  S
In365       O374   2.239       .  S
In365       O377   2.254       .  S
C366        O372   1.260       .  A
C366        O374   1.259       .  A
C366        C457   1.480       .  S
O367        C375   1.260       .  A
O368        C375   1.260       .  A
C369        O376   1.260       .  A
C369        O370   1.258       .  A
C369        C997   1.479       .  S
C371        O373   1.258       .  A
C371        O377   1.259       .  A
C371        C517   1.478       .  S
C375        C486   1.475       .  S
In378       O380   2.237       .  S
In378       O381   2.248       .  S
In378       O389   2.242       .  S
In378       O383   2.251       .  S
In378       O385   2.237       .  S
In378       O386   2.245       .  S
In378       O387   2.238       .  S
In378       O390   2.230       .  S
C379        O385   1.261       .  A
C379        O387   1.259       .  A
C379        C477   1.485       .  S
O380        C388   1.261       .  A
O381        C388   1.263       .  A
C382        O389   1.259       .  A
C382        O383   1.260       .  A
C382       C1457   1.478       .  S
C384        O386   1.263       .  A
C384        O390   1.259       .  A
C384        C437   1.474       .  S
C388        C506   1.481       .  S
In391       O393   2.232       .  S
In391       O394   2.244       .  S
In391       O402   2.236       .  S
In391       O396   2.237       .  S
In391       O398   2.250       .  S
In391       O399   2.246       .  S
In391       O400   2.240       .  S
In391       O403   2.239       .  S
C392        O398   1.261       .  A
C392        O400   1.259       .  A
C392        C417   1.480       .  S
O393        C401   1.260   1_545  A
O394        C401   1.263   1_545  A
C395        O402   1.262       .  A
C395        O396   1.264       .  A
C395       C1497   1.476       .  S
C397        O399   1.262       .  A
C397        O403   1.259       .  A
C397        C466   1.485       .  S
C401        C597   1.483       .  S
In404       O406   2.246       .  S
In404       O407   2.244       .  S
In404       O415   2.236       .  S
In404       O409   2.240       .  S
In404       O411   2.246       .  S
In404       O412   2.246       .  S
In404       O413   2.237       .  S
In404       O416   2.244       .  S
C405        O411   1.259       .  A
C405        O413   1.259       .  A
C405        C446   1.476       .  S
O406        C414   1.260       .  A
O407        C414   1.258       .  A
C408        O415   1.261       .  A
C408        O409   1.261       .  A
C408        C906   1.473       .  S
C410        O412   1.261       .  A
C410        O416   1.262       .  A
C410        C566   1.485       .  S
C414        C426   1.477       .  S
C417        C418   1.414       .  A
C417        C422   1.414       .  A
C418        C419   1.409       .  A
C418       Br430   1.930       .  S
C419        C420   1.408       .  A
C419       Br434   1.930       .  S
C420        C423   1.483       .  S
C420        C421   1.407       .  A
C421        C422   1.406       .  A
C421       Br429   1.932       .  S
C422       Br433   1.933       .  S
C423        C424   1.407       .  A
C423        C428   1.409       .  A
C424        C425   1.407       .  A
C424       Br435   1.931       .  S
C425        C426   1.414       .  A
C425       Br431   1.932       .  S
C426        C427   1.411       .  A
C427        C428   1.407       .  A
C427       Br436   1.931       .  S
C428       Br432   1.930       .  S
C437        C438   1.412       .  A
C437        C442   1.411       .  A
C438        C439   1.406       .  A
C438       Br450   1.932       .  S
C439        C440   1.408       .  A
C439       Br454   1.931       .  S
C440        C443   1.480       .  S
C440        C441   1.408       .  A
C441        C442   1.406       .  A
C441       Br449   1.931       .  S
C442       Br453   1.931       .  S
C443        C444   1.407       .  A
C443        C448   1.408       .  A
C444        C445   1.405       .  A
C444       Br455   1.930       .  S
C445        C446   1.411       .  A
C445       Br451   1.928       .  S
C446        C447   1.414       .  A
C447        C448   1.406       .  A
C447       Br456   1.933       .  S
C448       Br452   1.931       .  S
C457        C458   1.416       .  A
C457        C462   1.414       .  A
C458        C459   1.406       .  A
C458       Br470   1.933       .  S
C459        C460   1.407       .  A
C459       Br474   1.931       .  S
C460        C463   1.481       .  S
C460        C461   1.407       .  A
C461        C462   1.406       .  A
C461       Br469   1.930       .  S
C462       Br473   1.931       .  S
C463        C464   1.405       .  A
C463        C468   1.407       .  A
C464        C465   1.406       .  A
C464       Br475   1.931       .  S
C465        C466   1.416       .  A
C465       Br471   1.931   1_545  S
C466        C467   1.418       .  A
C467        C468   1.408       .  A
C467       Br476   1.934       .  S
C468       Br472   1.933       .  S
C477        C478   1.420       .  A
C477        C482   1.419       .  A
C478        C479   1.405       .  A
C478       Br490   1.934       .  S
C479        C480   1.404       .  A
C479       Br494   1.934       .  S
C480        C483   1.478       .  S
C480        C481   1.405       .  A
C481        C482   1.407       .  A
C481       Br489   1.931       .  S
C482       Br493   1.933       .  S
C483        C484   1.408       .  A
C483        C488   1.406       .  A
C484        C485   1.406       .  A
C484       Br495   1.930       .  S
C485        C486   1.411       .  A
C485       Br491   1.930       .  S
C486        C487   1.414       .  A
C487        C488   1.405       .  A
C487       Br496   1.931       .  S
C488       Br492   1.933       .  S
C497        C498   1.414       .  A
C497        C502   1.413       .  A
C498        C499   1.410       .  A
C498       Br510   1.931       .  S
C499        C500   1.410       .  A
C499       Br514   1.931       .  S
C500        C503   1.487       .  S
C500        C501   1.408       .  A
C501        C502   1.406       .  A
C501       Br509   1.930       .  S
C502       Br513   1.932       .  S
C503        C504   1.408       .  A
C503        C508   1.409       .  A
C504        C505   1.408       .  A
C504       Br515   1.930       .  S
C505        C506   1.413       .  A
C505       Br511   1.931       .  S
C506        C507   1.414       .  A
C507        C508   1.408       .  A
C507       Br516   1.932       .  S
C508       Br512   1.931       .  S
C517        C518   1.411       .  A
C517        C522   1.412       .  A
C518        C519   1.408       .  A
C518       Br530   1.929       .  S
C519        C520   1.408       .  A
C519       Br534   1.930       .  S
C520        C523   1.483       .  S
C520        C521   1.408       .  A
C521        C522   1.407       .  A
C521       Br529   1.931       .  S
C522       Br533   1.930       .  S
C523        C524   1.408       .  A
C523        C528   1.409   1_545  A
C524        C525   1.406       .  A
C524       Br535   1.928       .  S
C525        C526   1.410   1_545  A
C525       Br531   1.931       .  S
C526        C527   1.412       .  A
C527        C528   1.406       .  A
C527       Br536   1.933       .  S
C528       Br532   1.930       .  S
C537        C538   1.409       .  A
C537        C542   1.410       .  A
C538        C539   1.405       .  A
C538       Br550   1.932       .  S
C539        C540   1.408       .  A
C539       Br554   1.930       .  S
C540        C543   1.482       .  S
C540        C541   1.409       .  A
C541        C542   1.408       .  A
C541       Br549   1.929       .  S
C542       Br553   1.930       .  S
C543        C544   1.408       .  A
C543        C548   1.408       .  A
C544        C545   1.406       .  A
C544       Br555   1.931       .  S
C545        C546   1.412       .  A
C545       Br551   1.933       .  S
C546        C547   1.411       .  A
C547        C548   1.408       .  A
C547       Br556   1.930       .  S
C548       Br552   1.929       .  S
C557        C558   1.411       .  A
C557        C562   1.412       .  A
C558        C559   1.406       .  A
C558       Br570   1.930       .  S
C559        C560   1.407       .  A
C559       Br574   1.930       .  S
C560        C563   1.482       .  S
C560        C561   1.408       .  A
C561        C562   1.407       .  A
C561       Br569   1.930       .  S
C562       Br573   1.931       .  S
C563        C564   1.406       .  A
C563        C568   1.406       .  A
C564        C565   1.409       .  A
C564       Br575   1.930       .  S
C565        C566   1.417       .  A
C565       Br571   1.931       .  S
C566        C567   1.415       .  A
C567        C568   1.406       .  A
C567       Br576   1.929       .  S
C568       Br572   1.933       .  S
C577        C578   1.413       .  A
C577        C582   1.416       .  A
C578        C579   1.407   1_655  A
C578       Br590   1.930       .  S
C579        C580   1.407       .  A
C579       Br594   1.931       .  S
C580        C583   1.477       .  S
C580        C581   1.405       .  A
C581        C582   1.405   1_455  A
C581       Br589   1.933       .  S
C582       Br593   1.931       .  S
C583        C584   1.409       .  A
C583        C588   1.407       .  A
C584        C585   1.406       .  A
C584       Br595   1.931       .  S
C585        C586   1.409       .  A
C585       Br591   1.930       .  S
C586        C587   1.409       .  A
C587        C588   1.404       .  A
C587       Br596   1.931       .  S
C588       Br592   1.930       .  S
C597        C598   1.416       .  A
C597        C602   1.416       .  A
C598        C599   1.407       .  A
C598       Br610   1.933   1_565  S
C599        C600   1.407       .  A
C599       Br614   1.933       .  S
C600        C603   1.482       .  S
C600        C601   1.406       .  A
C601        C602   1.407       .  A
C601       Br609   1.931       .  S
C602       Br613   1.932       .  S
C603        C604   1.405       .  A
C603        C608   1.409       .  A
C604        C605   1.404       .  A
C604       Br615   1.931       .  S
C605        C606   1.414       .  A
C605       Br611   1.933       .  S
C606        C607   1.415       .  A
C607        C608   1.410       .  A
C607       Br616   1.930       .  S
C608       Br612   1.931       .  S
C617        C618   1.412       .  A
C617        C622   1.412       .  A
C618        C619   1.407       .  A
C618       Br630   1.930       .  S
C619        C620   1.408       .  A
C619       Br634   1.931       .  S
C620        C623   1.480       .  S
C620        C621   1.407       .  A
C621        C622   1.405       .  A
C621       Br629   1.930       .  S
C622       Br633   1.931       .  S
C623        C624   1.407       .  A
C623        C628   1.406       .  A
C624        C625   1.406       .  A
C624       Br635   1.931       .  S
C625        C626   1.414       .  A
C625       Br631   1.930       .  S
C626        C627   1.416       .  A
C627        C628   1.406       .  A
C627       Br636   1.933   1_655  S
C628       Br632   1.932       .  S
C637        C638   1.410       .  A
C637        C642   1.409       .  A
C638        C639   1.406       .  A
C638       Br650   1.931       .  S
C639        C640   1.409       .  A
C639       Br654   1.931       .  S
C640        C643   1.483       .  S
C640        C641   1.409       .  A
C641        C642   1.408       .  A
C641       Br649   1.928       .  S
C642       Br653   1.928       .  S
C643        C644   1.409       .  A
C643        C648   1.408       .  A
C644        C645   1.407       .  A
C644       Br655   1.929       .  S
C645        C646   1.411       .  A
C645       Br651   1.932       .  S
C646        C647   1.409       .  A
C647        C648   1.406       .  A
C647       Br656   1.929       .  S
C648       Br652   1.929       .  S
C657        C658   1.415       .  A
C657        C662   1.418       .  A
C658        C659   1.406       .  A
C658       Br670   1.932       .  S
C659        C660   1.407       .  A
C659       Br674   1.931       .  S
C660        C663   1.484       .  S
C660        C661   1.408       .  A
C661        C662   1.410       .  A
C661       Br669   1.931       .  S
C662       Br673   1.932       .  S
C663        C664   1.408       .  A
C663        C668   1.408       .  A
C664        C665   1.407       .  A
C664       Br675   1.932       .  S
C665        C666   1.416       .  A
C665       Br671   1.933       .  S
C666        C667   1.413       .  A
C667        C668   1.408       .  A
C667       Br676   1.931       .  S
C668       Br672   1.930       .  S
C677        C678   1.413       .  A
C677        C682   1.411       .  A
C678        C679   1.404       .  A
C678       Br690   1.934       .  S
C679        C680   1.407       .  A
C679       Br694   1.931       .  S
C680        C683   1.477       .  S
C680        C681   1.408       .  A
C681        C682   1.405       .  A
C681       Br689   1.930       .  S
C682       Br693   1.931       .  S
C683        C684   1.408       .  A
C683        C688   1.406       .  A
C684        C685   1.407       .  A
C684       Br695   1.931       .  S
C685        C686   1.411       .  A
C685       Br691   1.928       .  S
C686        C687   1.413       .  A
C687        C688   1.403       .  A
C687       Br696   1.934       .  S
C688       Br692   1.932       .  S
C697        C698   1.414       .  A
C697        C702   1.413       .  A
C698        C699   1.407       .  A
C698       Br710   1.932       .  S
C699        C700   1.408       .  A
C699       Br714   1.931       .  S
C700        C703   1.481       .  S
C700        C701   1.407       .  A
C701        C702   1.407       .  A
C701       Br709   1.930       .  S
C702       Br713   1.931       .  S
C703        C704   1.407       .  A
C703        C708   1.407       .  A
C704        C705   1.408       .  A
C704       Br715   1.929       .  S
C705        C706   1.413       .  A
C705       Br711   1.931       .  S
C706        C707   1.414       .  A
C707        C708   1.405       .  A
C707       Br716   1.930       .  S
C708       Br712   1.933       .  S
C717        C718   1.417       .  A
C717        C722   1.417       .  A
C718        C719   1.408       .  A
C718       Br730   1.934       .  S
C719        C720   1.407       .  A
C719       Br734   1.931       .  S
C720        C723   1.485       .  S
C720        C721   1.407       .  A
C721        C722   1.408       .  A
C721       Br729   1.932       .  S
C722       Br733   1.932       .  S
C723        C724   1.408       .  A
C723        C728   1.408       .  A
C724        C725   1.408       .  A
C724       Br735   1.931       .  S
C725        C726   1.413       .  A
C725       Br731   1.931       .  S
C726        C727   1.415       .  A
C727        C728   1.408       .  A
C727       Br736   1.932       .  S
C728       Br732   1.931       .  S
C737        C738   1.414       .  A
C737        C742   1.415       .  A
C738        C739   1.406       .  A
C738       Br750   1.934   1_565  S
C739        C740   1.409       .  A
C739       Br754   1.933       .  S
C740        C743   1.484       .  S
C740        C741   1.407       .  A
C741        C742   1.409       .  A
C741       Br749   1.930       .  S
C742       Br753   1.931       .  S
C743        C744   1.409       .  A
C743        C748   1.408       .  A
C744        C745   1.408       .  A
C744       Br755   1.930       .  S
C745        C746   1.413       .  A
C745       Br751   1.932       .  S
C746        C747   1.412       .  A
C747        C748   1.406       .  A
C747       Br756   1.932       .  S
C748       Br752   1.929       .  S
C757        C758   1.412   1_565  A
C757        C762   1.411       .  A
C758        C759   1.408       .  A
C758       Br770   1.931       .  S
C759        C760   1.409       .  A
C759       Br774   1.930       .  S
C760        C763   1.483       .  S
C760        C761   1.409   1_545  A
C761        C762   1.406       .  A
C761       Br769   1.930       .  S
C762       Br773   1.933       .  S
C763        C764   1.409       .  A
C763        C768   1.408       .  A
C764        C765   1.407       .  A
C764       Br775   1.930       .  S
C765        C766   1.410       .  A
C765       Br771   1.930       .  S
C766        C767   1.411       .  A
C767        C768   1.407       .  A
C767       Br776   1.931       .  S
C768       Br772   1.930       .  S
C777        C778   1.417       .  A
C777        C782   1.415       .  A
C778        C779   1.407   1_655  A
C778       Br790   1.934       .  S
C779        C780   1.406       .  A
C779       Br794   1.930       .  S
C780        C783   1.486       .  S
C780        C781   1.409       .  A
C781        C782   1.408   1_455  A
C781       Br789   1.931       .  S
C782       Br793   1.933       .  S
C783        C784   1.408       .  A
C783        C788   1.406       .  A
C784        C785   1.409       .  A
C784       Br795   1.932       .  S
C785        C786   1.416       .  A
C785       Br791   1.930       .  S
C786        C787   1.417       .  A
C787        C788   1.409       .  A
C787       Br796   1.933       .  S
C788       Br792   1.931       .  S
C797        C798   1.410       .  A
C797        C802   1.410       .  A
C798        C799   1.408       .  A
C798       Br810   1.930       .  S
C799        C800   1.410       .  A
C799       Br814   1.929       .  S
C800        C803   1.484       .  S
C800        C801   1.409       .  A
C801        C802   1.405       .  A
C801       Br809   1.931       .  S
C802       Br813   1.930       .  S
C803        C804   1.407       .  A
C803        C808   1.408       .  A
C804        C805   1.409       .  A
C804       Br815   1.930       .  S
C805        C806   1.416       .  A
C805       Br811   1.931       .  S
C806        C807   1.415       .  A
C807        C808   1.407       .  A
C807       Br816   1.932       .  S
C808       Br812   1.933       .  S
C817        C818   1.416       .  A
C817        C822   1.415       .  A
C818        C819   1.407       .  A
C818       Br830   1.932       .  S
C819        C820   1.407       .  A
C819       Br834   1.931       .  S
C820        C823   1.481       .  S
C820        C821   1.406       .  A
C821        C822   1.406       .  A
C821       Br829   1.931       .  S
C822       Br833   1.933       .  S
C823        C824   1.406       .  A
C823        C828   1.406       .  A
C824        C825   1.405       .  A
C824       Br835   1.932       .  S
C825        C826   1.415       .  A
C825       Br831   1.930       .  S
C826        C827   1.416       .  A
C827        C828   1.408       .  A
C827       Br836   1.932       .  S
C828       Br832   1.931       .  S
C837        C838   1.417       .  A
C837        C842   1.417       .  A
C838        C839   1.410       .  A
C838       Br850   1.933       .  S
C839        C840   1.407       .  A
C839       Br854   1.930       .  S
C840        C843   1.485       .  S
C840        C841   1.407       .  A
C841        C842   1.406       .  A
C841       Br849   1.933       .  S
C842       Br853   1.932       .  S
C843        C844   1.409       .  A
C843        C848   1.409       .  A
C844        C845   1.408       .  A
C844       Br855   1.929       .  S
C845        C846   1.411       .  A
C845       Br851   1.931       .  S
C846        C847   1.411       .  A
C847        C848   1.408       .  A
C847       Br856   1.929       .  S
C848       Br852   1.930       .  S
C857        C858   1.412       .  A
C857        C862   1.415       .  A
C858        C859   1.408       .  A
C858       Br870   1.932       .  S
C859        C860   1.409       .  A
C859       Br874   1.930       .  S
C860        C863   1.488       .  S
C860        C861   1.409       .  A
C861        C862   1.409       .  A
C861       Br869   1.931       .  S
C862       Br873   1.933   1_655  S
C863        C864   1.410       .  A
C863        C868   1.407       .  A
C864        C865   1.410       .  A
C864       Br875   1.932       .  S
C865        C866   1.416       .  A
C865       Br871   1.931       .  S
C866        C867   1.415       .  A
C867        C868   1.408       .  A
C867       Br876   1.932       .  S
C868       Br872   1.930       .  S
C877        C878   1.417       .  A
C877        C882   1.416       .  A
C878        C879   1.409       .  A
C878       Br890   1.933       .  S
C879        C880   1.408       .  A
C879       Br894   1.931       .  S
C880        C883   1.487       .  S
C880        C881   1.408       .  A
C881        C882   1.408       .  A
C881       Br889   1.932       .  S
C882       Br893   1.932       .  S
C883        C884   1.410       .  A
C883        C888   1.409       .  A
C884        C885   1.408       .  A
C884       Br895   1.931       .  S
C885        C886   1.414       .  A
C885       Br891   1.933       .  S
C886        C887   1.412       .  A
C887        C888   1.408       .  A
C887       Br896   1.931       .  S
C888       Br892   1.930       .  S
C897        C898   1.410       .  A
C897        C902   1.411       .  A
C898        C899   1.405       .  A
C898       Br910   1.931       .  S
C899        C900   1.408       .  A
C899       Br914   1.930       .  S
C900        C903   1.478       .  S
C900        C901   1.408       .  A
C901        C902   1.406       .  A
C901       Br909   1.930       .  S
C902       Br913   1.931       .  S
C903        C904   1.407       .  A
C903        C908   1.408       .  A
C904        C905   1.404       .  A
C904       Br915   1.930       .  S
C905        C906   1.411       .  A
C905       Br911   1.930       .  S
C906        C907   1.411       .  A
C907        C908   1.406       .  A
C907       Br916   1.930       .  S
C908       Br912   1.931       .  S
C917        C918   1.413       .  A
C917        C922   1.411   1_565  A
C918        C919   1.406       .  A
C918       Br930   1.928       .  S
C919        C920   1.407       .  A
C919       Br934   1.930       .  S
C920        C923   1.483       .  S
C920        C921   1.409   1_565  A
C921        C922   1.406       .  A
C921       Br929   1.929       .  S
C922       Br933   1.932       .  S
C923        C924   1.408       .  A
C923        C928   1.408       .  A
C924        C925   1.408       .  A
C924       Br935   1.929       .  S
C925        C926   1.412       .  A
C925       Br931   1.930       .  S
C926        C927   1.413       .  A
C927        C928   1.406       .  A
C927       Br936   1.932       .  S
C928       Br932   1.932       .  S
C937        C938   1.416       .  A
C937        C942   1.414       .  A
C938        C939   1.406       .  A
C938       Br950   1.934       .  S
C939        C940   1.407       .  A
C939       Br954   1.931       .  S
C940        C943   1.481       .  S
C940        C941   1.406       .  A
C941        C942   1.406       .  A
C941       Br949   1.930       .  S
C942       Br953   1.931       .  S
C943        C944   1.407       .  A
C943        C948   1.406       .  A
C944        C945   1.408       .  A
C944       Br955   1.931       .  S
C945        C946   1.417       .  A
C945       Br951   1.932       .  S
C946        C947   1.416       .  A
C947        C948   1.405       .  A
C947       Br956   1.932       .  S
C948       Br952   1.931       .  S
C957        C958   1.410       .  A
C957        C962   1.412       .  A
C958        C959   1.407       .  A
C958       Br970   1.930       .  S
C959        C960   1.409       .  A
C959       Br974   1.929       .  S
C960        C963   1.480       .  S
C960        C961   1.407       .  A
C961        C962   1.405       .  A
C961       Br969   1.930       .  S
C962       Br973   1.931       .  S
C963        C964   1.409       .  A
C963        C968   1.408       .  A
C964        C965   1.405       .  A
C964       Br975   1.930       .  S
C965        C966   1.409       .  A
C965       Br971   1.930       .  S
C966        C967   1.412       .  A
C967        C968   1.407       .  A
C967       Br976   1.931       .  S
C968       Br972   1.930       .  S
C977        C978   1.411       .  A
C977        C982   1.412       .  A
C978        C979   1.406       .  A
C978       Br990   1.929       .  S
C979        C980   1.406       .  A
C979       Br994   1.930       .  S
C980        C983   1.477       .  S
C980        C981   1.407       .  A
C981        C982   1.405       .  A
C981       Br989   1.931       .  S
C982       Br993   1.932       .  S
C983        C984   1.408       .  A
C983        C988   1.408       .  A
C984        C985   1.405       .  A
C984       Br995   1.930       .  S
C985        C986   1.410       .  A
C985       Br991   1.930       .  S
C986        C987   1.410       .  A
C987        C988   1.405       .  A
C987       Br996   1.931   1_655  S
C988       Br992   1.929       .  S
C997        C998   1.412       .  A
C997       C1002   1.412       .  A
C998        C999   1.407       .  A
C998      Br1010   1.931       .  S
C999       C1000   1.409       .  A
C999      Br1014   1.931       .  S
C1000      C1003   1.486       .  S
C1000      C1001   1.409       .  A
C1001      C1002   1.410       .  A
C1001     Br1009   1.928       .  S
C1002     Br1013   1.931       .  S
C1003      C1004   1.408       .  A
C1003      C1008   1.409       .  A
C1004      C1005   1.409       .  A
C1004     Br1015   1.930       .  S
C1005      C1006   1.415       .  A
C1005     Br1011   1.932       .  S
C1006      C1007   1.412       .  A
C1007      C1008   1.409       .  A
C1007     Br1016   1.930       .  S
C1008     Br1012   1.930       .  S
C1017      C1018   1.414       .  A
C1017      C1022   1.412       .  A
C1018      C1019   1.407       .  A
C1018     Br1030   1.931       .  S
C1019      C1020   1.407       .  A
C1019     Br1034   1.931       .  S
C1020      C1023   1.483       .  S
C1020      C1021   1.408       .  A
C1021      C1022   1.409       .  A
C1021     Br1029   1.931       .  S
C1022     Br1033   1.929       .  S
C1023      C1024   1.409   1_455  A
C1023      C1028   1.409       .  A
C1024      C1025   1.406       .  A
C1024     Br1035   1.930       .  S
C1025      C1026   1.410       .  A
C1025     Br1031   1.932       .  S
C1026      C1027   1.409       .  A
C1027      C1028   1.406   1_655  A
C1027     Br1036   1.932       .  S
C1028     Br1032   1.928       .  S
C1037      C1038   1.416       .  A
C1037      C1042   1.413       .  A
C1038      C1039   1.408       .  A
C1038     Br1050   1.933       .  S
C1039      C1040   1.408       .  A
C1039     Br1054   1.931       .  S
C1040      C1043   1.482       .  S
C1040      C1041   1.408       .  A
C1041      C1042   1.406       .  A
C1041     Br1049   1.931       .  S
C1042     Br1053   1.932       .  S
C1043      C1044   1.409       .  A
C1043      C1048   1.409       .  A
C1044      C1045   1.406       .  A
C1044     Br1055   1.930       .  S
C1045      C1046   1.410       .  A
C1045     Br1051   1.930       .  S
C1046      C1047   1.410       .  A
C1047      C1048   1.406       .  A
C1047     Br1056   1.931       .  S
C1048     Br1052   1.930       .  S
C1057      C1058   1.416       .  A
C1057      C1062   1.416       .  A
C1058      C1059   1.409       .  A
C1058     Br1070   1.931       .  S
C1059      C1060   1.407       .  A
C1059     Br1074   1.931   1_565  S
C1060      C1063   1.486       .  S
C1060      C1061   1.408       .  A
C1061      C1062   1.409       .  A
C1061     Br1069   1.932       .  S
C1062     Br1073   1.931       .  S
C1063      C1064   1.408   1_565  A
C1063      C1068   1.406       .  A
C1064      C1065   1.409       .  A
C1064     Br1075   1.931       .  S
C1065      C1066   1.417       .  A
C1065     Br1071   1.934       .  S
C1066      C1067   1.418   1_545  A
C1067      C1068   1.408       .  A
C1067     Br1076   1.933       .  S
C1068     Br1072   1.931       .  S
C1077      C1078   1.418       .  A
C1077      C1082   1.416   1_565  A
C1078      C1079   1.405   1_565  A
C1078     Br1090   1.934       .  S
C1079      C1080   1.407       .  A
C1079     Br1094   1.934       .  S
C1080      C1083   1.483       .  S
C1080      C1081   1.407       .  A
C1081      C1082   1.407       .  A
C1081     Br1089   1.931       .  S
C1082     Br1093   1.933       .  S
C1083      C1084   1.408       .  A
C1083      C1088   1.408       .  A
C1084      C1085   1.407       .  A
C1084     Br1095   1.931       .  S
C1085      C1086   1.414       .  A
C1085     Br1091   1.932       .  S
C1086      C1087   1.414       .  A
C1087      C1088   1.406       .  A
C1087     Br1096   1.933       .  S
C1088     Br1092   1.932       .  S
C1097      C1098   1.413       .  A
C1097      C1102   1.414       .  A
C1098      C1099   1.410       .  A
C1098     Br1110   1.927       .  S
C1099      C1100   1.409       .  A
C1099     Br1114   1.930       .  S
C1100      C1103   1.486       .  S
C1100      C1101   1.408       .  A
C1101      C1102   1.408       .  A
C1101     Br1109   1.930       .  S
C1102     Br1113   1.933       .  S
C1103      C1104   1.409       .  A
C1103      C1108   1.409       .  A
C1104      C1105   1.407       .  A
C1104     Br1115   1.929       .  S
C1105      C1106   1.413       .  A
C1105     Br1111   1.933       .  S
C1106      C1107   1.413       .  A
C1107      C1108   1.408       .  A
C1107     Br1116   1.932       .  S
C1108     Br1112   1.929       .  S
C1117      C1118   1.409       .  A
C1117      C1122   1.411       .  A
C1118      C1119   1.406       .  A
C1118     Br1130   1.931       .  S
C1119      C1120   1.411       .  A
C1119     Br1134   1.931       .  S
C1120      C1123   1.488       .  S
C1120      C1121   1.411       .  A
C1121      C1122   1.411       .  A
C1121     Br1129   1.928       .  S
C1122     Br1133   1.931       .  S
C1123      C1124   1.411       .  A
C1123      C1128   1.410       .  A
C1124      C1125   1.408       .  A
C1124     Br1135   1.927       .  S
C1125      C1126   1.407       .  A
C1125     Br1131   1.929       .  S
C1126      C1127   1.408       .  A
C1127      C1128   1.408       .  A
C1127     Br1136   1.931       .  S
C1128     Br1132   1.928       .  S
C1137      C1138   1.411       .  A
C1137      C1142   1.408       .  A
C1138      C1139   1.408       .  A
C1138     Br1150   1.931       .  S
C1139      C1140   1.409       .  A
C1139     Br1154   1.930       .  S
C1140      C1143   1.483       .  S
C1140      C1141   1.409       .  A
C1141      C1142   1.406       .  A
C1141     Br1149   1.929       .  S
C1142     Br1153   1.929       .  S
C1143      C1144   1.408       .  A
C1143      C1148   1.408       .  A
C1144      C1145   1.408       .  A
C1144     Br1155   1.929       .  S
C1145      C1146   1.414       .  A
C1145     Br1151   1.933       .  S
C1146      C1147   1.412       .  A
C1147      C1148   1.406       .  A
C1147     Br1156   1.929       .  S
C1148     Br1152   1.931       .  S
C1157      C1158   1.413       .  A
C1157      C1162   1.412       .  A
C1158      C1159   1.407       .  A
C1158     Br1170   1.932       .  S
C1159      C1160   1.408       .  A
C1159     Br1174   1.930       .  S
C1160      C1163   1.482       .  S
C1160      C1161   1.408       .  A
C1161      C1162   1.406       .  A
C1161     Br1169   1.931       .  S
C1162     Br1173   1.931       .  S
C1163      C1164   1.408       .  A
C1163      C1168   1.409       .  A
C1164      C1165   1.406       .  A
C1164     Br1175   1.930       .  S
C1165      C1166   1.412       .  A
C1165     Br1171   1.933       .  S
C1166      C1167   1.411       .  A
C1167      C1168   1.407       .  A
C1167     Br1176   1.930       .  S
C1168     Br1172   1.930       .  S
C1177      C1178   1.408       .  A
C1177      C1182   1.409       .  A
C1178      C1179   1.403       .  A
C1178     Br1190   1.931       .  S
C1179      C1180   1.409       .  A
C1179     Br1194   1.931       .  S
C1180      C1183   1.476       .  S
C1180      C1181   1.407       .  A
C1181      C1182   1.405       .  A
C1181     Br1189   1.928       .  S
C1182     Br1193   1.931       .  S
C1183      C1184   1.407       .  A
C1183      C1188   1.407       .  A
C1184      C1185   1.404       .  A
C1184     Br1195   1.931       .  S
C1185      C1186   1.410       .  A
C1185     Br1191   1.931       .  S
C1186      C1187   1.411       .  A
C1187      C1188   1.405       .  A
C1187     Br1196   1.930       .  S
C1188     Br1192   1.930       .  S
C1197      C1198   1.412       .  A
C1197      C1202   1.409       .  A
C1198      C1199   1.408       .  A
C1198     Br1210   1.933       .  S
C1199      C1200   1.410       .  A
C1199     Br1214   1.930       .  S
C1200      C1203   1.482       .  S
C1200      C1201   1.407       .  A
C1201      C1202   1.404       .  A
C1201     Br1209   1.929       .  S
C1202     Br1213   1.930       .  S
C1203      C1204   1.409       .  A
C1203      C1208   1.409       .  A
C1204      C1205   1.407       .  A
C1204     Br1215   1.928       .  S
C1205      C1206   1.407       .  A
C1205     Br1211   1.928       .  S
C1206      C1207   1.410       .  A
C1207      C1208   1.407       .  A
C1207     Br1216   1.927       .  S
C1208     Br1212   1.931       .  S
C1217      C1218   1.415       .  A
C1217      C1222   1.413       .  A
C1218      C1219   1.409       .  A
C1218     Br1230   1.932       .  S
C1219      C1220   1.408       .  A
C1219     Br1234   1.930       .  S
C1220      C1223   1.490       .  S
C1220      C1221   1.409       .  A
C1221      C1222   1.410       .  A
C1221     Br1229   1.929       .  S
C1222     Br1233   1.931       .  S
C1223      C1224   1.409       .  A
C1223      C1228   1.407       .  A
C1224      C1225   1.411       .  A
C1224     Br1235   1.931       .  S
C1225      C1226   1.418       .  A
C1225     Br1231   1.932       .  S
C1226      C1227   1.417       .  A
C1227      C1228   1.409       .  A
C1227     Br1236   1.933       .  S
C1228     Br1232   1.930       .  S
C1237      C1238   1.412       .  A
C1237      C1242   1.413       .  A
C1238      C1239   1.402       .  A
C1238     Br1250   1.930   1_565  S
C1239      C1240   1.406       .  A
C1239     Br1254   1.933       .  S
C1240      C1243   1.473       .  S
C1240      C1241   1.406       .  A
C1241      C1242   1.406       .  A
C1241     Br1249   1.930       .  S
C1242     Br1253   1.929       .  S
C1243      C1244   1.408       .  A
C1243      C1248   1.408       .  A
C1244      C1245   1.404       .  A
C1244     Br1255   1.930       .  S
C1245      C1246   1.408       .  A
C1245     Br1251   1.930       .  S
C1246      C1247   1.407       .  A
C1247      C1248   1.402       .  A
C1247     Br1256   1.931       .  S
C1248     Br1252   1.930       .  S
C1257      C1258   1.410       .  A
C1257      C1262   1.408       .  A
C1258      C1259   1.406       .  A
C1258     Br1270   1.931       .  S
C1259      C1260   1.410       .  A
C1259     Br1274   1.932       .  S
C1260      C1263   1.484       .  S
C1260      C1261   1.409       .  A
C1261      C1262   1.408       .  A
C1261     Br1269   1.927       .  S
C1262     Br1273   1.929       .  S
C1263      C1264   1.409       .  A
C1263      C1268   1.407       .  A
C1264      C1265   1.408       .  A
C1264     Br1275   1.928       .  S
C1265      C1266   1.411       .  A
C1265     Br1271   1.931       .  S
C1266      C1267   1.415       .  A
C1267      C1268   1.406       .  A
C1267     Br1276   1.932       .  S
C1268     Br1272   1.931       .  S
C1277      C1278   1.413       .  A
C1277      C1282   1.417       .  A
C1278      C1279   1.407       .  A
C1278     Br1290   1.931       .  S
C1279      C1280   1.407       .  A
C1279     Br1294   1.930       .  S
C1280      C1283   1.479       .  S
C1280      C1281   1.405       .  A
C1281      C1282   1.406       .  A
C1281     Br1289   1.932       .  S
C1282     Br1293   1.933       .  S
C1283      C1284   1.408       .  A
C1283      C1288   1.410       .  A
C1284      C1285   1.404       .  A
C1284     Br1295   1.929       .  S
C1285      C1286   1.407       .  A
C1285     Br1291   1.930       .  S
C1286      C1287   1.408       .  A
C1287      C1288   1.406       .  A
C1287     Br1296   1.931       .  S
C1288     Br1292   1.929       .  S
C1297      C1298   1.411       .  A
C1297      C1302   1.410       .  A
C1298      C1299   1.407       .  A
C1298     Br1310   1.930       .  S
C1299      C1300   1.408   1_556  A
C1299     Br1314   1.930   1_556  S
C1300      C1303   1.480       .  S
C1300      C1301   1.408   1_554  A
C1301      C1302   1.405       .  A
C1301     Br1309   1.931   1_556  S
C1302     Br1313   1.929       .  S
C1303      C1304   1.407       .  A
C1303      C1308   1.408       .  A
C1304      C1305   1.405       .  A
C1304     Br1315   1.931       .  S
C1305      C1306   1.414       .  A
C1305     Br1311   1.932       .  S
C1306      C1307   1.414       .  A
C1307      C1308   1.407       .  A
C1307     Br1316   1.932       .  S
C1308     Br1312   1.930       .  S
C1317      C1318   1.412       .  A
C1317      C1322   1.412       .  A
C1318      C1319   1.406       .  A
C1318     Br1330   1.931       .  S
C1319      C1320   1.408       .  A
C1319     Br1334   1.931       .  S
C1320      C1323   1.483   1_556  S
C1320      C1321   1.410       .  A
C1321      C1322   1.408       .  A
C1321     Br1329   1.931   1_556  S
C1322     Br1333   1.931       .  S
C1323      C1324   1.407       .  A
C1323      C1328   1.409       .  A
C1324      C1325   1.405       .  A
C1324     Br1335   1.932       .  S
C1325      C1326   1.415       .  A
C1325     Br1331   1.933       .  S
C1326      C1327   1.414       .  A
C1327      C1328   1.408       .  A
C1327     Br1336   1.933       .  S
C1328     Br1332   1.931   1_554  S
C1337      C1338   1.414       .  A
C1337      C1342   1.416       .  A
C1338      C1339   1.407       .  A
C1338     Br1350   1.932       .  S
C1339      C1340   1.407       .  A
C1339     Br1354   1.931       .  S
C1340      C1343   1.488       .  S
C1340      C1341   1.409       .  A
C1341      C1342   1.411       .  A
C1341     Br1349   1.929       .  S
C1342     Br1353   1.931       .  S
C1343      C1344   1.408       .  A
C1343      C1348   1.408       .  A
C1344      C1345   1.409       .  A
C1344     Br1355   1.931       .  S
C1345      C1346   1.416       .  A
C1345     Br1351   1.932       .  S
C1346      C1347   1.415       .  A
C1347      C1348   1.410       .  A
C1347     Br1356   1.929       .  S
C1348     Br1352   1.929       .  S
C1357      C1358   1.419       .  A
C1357      C1362   1.416       .  A
C1358      C1359   1.406       .  A
C1358     Br1370   1.933       .  S
C1359      C1360   1.405       .  A
C1359     Br1374   1.933       .  S
C1360      C1363   1.485       .  S
C1360      C1361   1.409       .  A
C1361      C1362   1.410       .  A
C1361     Br1369   1.930       .  S
C1362     Br1373   1.933       .  S
C1363      C1364   1.409       .  A
C1363      C1368   1.409   1_455  A
C1364      C1365   1.408   1_455  A
C1364     Br1375   1.930       .  S
C1365      C1366   1.412       .  A
C1365     Br1371   1.932       .  S
C1366      C1367   1.413       .  A
C1367      C1368   1.407       .  A
C1367     Br1376   1.932       .  S
C1368     Br1372   1.931   1_655  S
C1377      C1378   1.415       .  A
C1377      C1382   1.415       .  A
C1378      C1379   1.406       .  A
C1378     Br1390   1.934       .  S
C1379      C1380   1.407       .  A
C1379     Br1394   1.932       .  S
C1380      C1383   1.482       .  S
C1380      C1381   1.406       .  A
C1381      C1382   1.408       .  A
C1381     Br1389   1.930       .  S
C1382     Br1393   1.931       .  S
C1383      C1384   1.406       .  A
C1383      C1388   1.408       .  A
C1384      C1385   1.406       .  A
C1384     Br1395   1.930       .  S
C1385      C1386   1.415       .  A
C1385     Br1391   1.932       .  S
C1386      C1387   1.415       .  A
C1387      C1388   1.408       .  A
C1387     Br1396   1.932       .  S
C1388     Br1392   1.932       .  S
C1397      C1398   1.414   1_545  A
C1397      C1402   1.413       .  A
C1398      C1399   1.406       .  A
C1398     Br1410   1.932       .  S
C1399      C1400   1.408       .  A
C1399     Br1414   1.931       .  S
C1400      C1403   1.484       .  S
C1400      C1401   1.408   1_565  A
C1401      C1402   1.408       .  A
C1401     Br1409   1.929       .  S
C1402     Br1413   1.932       .  S
C1403      C1404   1.409       .  A
C1403      C1408   1.408       .  A
C1404      C1405   1.407       .  A
C1404     Br1415   1.930       .  S
C1405      C1406   1.411       .  A
C1405     Br1411   1.930       .  S
C1406      C1407   1.411       .  A
C1407      C1408   1.408       .  A
C1407     Br1416   1.926       .  S
C1408     Br1412   1.930       .  S
C1417      C1418   1.415       .  A
C1417      C1422   1.415       .  A
C1418      C1419   1.409       .  A
C1418     Br1430   1.932       .  S
C1419      C1420   1.408       .  A
C1419     Br1434   1.930       .  S
C1420      C1423   1.486       .  S
C1420      C1421   1.407       .  A
C1421      C1422   1.407       .  A
C1421     Br1429   1.931       .  S
C1422     Br1433   1.933       .  S
C1423      C1424   1.406       .  A
C1423      C1428   1.408       .  A
C1424      C1425   1.407       .  A
C1424     Br1435   1.932       .  S
C1425      C1426   1.418   1_655  A
C1425     Br1431   1.931   1_655  S
C1426      C1427   1.415   1_455  A
C1427      C1428   1.410       .  A
C1427     Br1436   1.931   1_545  S
C1428     Br1432   1.929       .  S
C1437      C1438   1.413       .  A
C1437      C1442   1.415       .  A
C1438      C1439   1.406       .  A
C1438     Br1450   1.932       .  S
C1439      C1440   1.407       .  A
C1439     Br1454   1.930       .  S
C1440      C1443   1.479       .  S
C1440      C1441   1.407       .  A
C1441      C1442   1.405       .  A
C1441     Br1449   1.932       .  S
C1442     Br1453   1.932       .  S
C1443      C1444   1.407       .  A
C1443      C1448   1.406       .  A
C1444      C1445   1.405       .  A
C1444     Br1455   1.932       .  S
C1445      C1446   1.414       .  A
C1445     Br1451   1.932       .  S
C1446      C1447   1.415       .  A
C1447      C1448   1.405       .  A
C1447     Br1456   1.932       .  S
C1448     Br1452   1.931       .  S
C1457      C1458   1.414       .  A
C1457      C1462   1.412       .  A
C1458      C1459   1.407       .  A
C1458     Br1470   1.931       .  S
C1459      C1460   1.407       .  A
C1459     Br1474   1.930       .  S
C1460      C1463   1.482       .  S
C1460      C1461   1.408       .  A
C1461      C1462   1.407       .  A
C1461     Br1469   1.931       .  S
C1462     Br1473   1.930       .  S
C1463      C1464   1.407       .  A
C1463      C1468   1.407       .  A
C1464      C1465   1.408       .  A
C1464     Br1475   1.929       .  S
C1465      C1466   1.413       .  A
C1465     Br1471   1.931       .  S
C1466      C1467   1.413       .  A
C1467      C1468   1.406       .  A
C1467     Br1476   1.931       .  S
C1468     Br1472   1.931       .  S
C1477      C1478   1.413       .  A
C1477      C1482   1.411       .  A
C1478      C1479   1.406       .  A
C1478     Br1490   1.932       .  S
C1479      C1480   1.407       .  A
C1479     Br1494   1.930       .  S
C1480      C1483   1.479       .  S
C1480      C1481   1.408       .  A
C1481      C1482   1.405       .  A
C1481     Br1489   1.930       .  S
C1482     Br1493   1.931       .  S
C1483      C1484   1.409       .  A
C1483      C1488   1.408       .  A
C1484      C1485   1.406       .  A
C1484     Br1495   1.930       .  S
C1485      C1486   1.409       .  A
C1485     Br1491   1.930       .  S
C1486      C1487   1.408       .  A
C1487      C1488   1.405       .  A
C1487     Br1496   1.928       .  S
C1488     Br1492   1.929       .  S
C1497      C1498   1.414   1_545  A
C1497      C1502   1.411       .  A
C1498      C1499   1.407       .  A
C1498     Br1510   1.933       .  S
C1499      C1500   1.408       .  A
C1499     Br1514   1.931       .  S
C1500      C1503   1.480       .  S
C1500      C1501   1.407   1_565  A
C1501      C1502   1.405       .  A
C1501     Br1509   1.931       .  S
C1502     Br1513   1.929       .  S
C1503      C1504   1.408       .  A
C1503      C1508   1.409       .  A
C1504      C1505   1.406       .  A
C1504     Br1515   1.930       .  S
C1505      C1506   1.410       .  A
C1505     Br1511   1.929       .  S
C1506      C1507   1.411       .  A
C1507      C1508   1.405       .  A
C1507     Br1516   1.932       .  S
C1508     Br1512   1.931       .  S
C1517      C1518   1.416       .  A
C1517      C1522   1.414   1_565  A
C1518      C1519   1.405       .  A
C1518     Br1530   1.930       .  S
C1519      C1520   1.405   1_565  A
C1519     Br1534   1.932       .  S
C1520      C1523   1.480       .  S
C1520      C1521   1.407       .  A
C1521      C1522   1.407       .  A
C1521     Br1529   1.930       .  S
C1522     Br1533   1.932       .  S
C1523      C1524   1.407       .  A
C1523      C1528   1.408       .  A
C1524      C1525   1.406       .  A
C1524     Br1535   1.931       .  S
C1525      C1526   1.413       .  A
C1525     Br1531   1.928       .  S
C1526      C1527   1.412       .  A
C1527      C1528   1.406       .  A
C1527     Br1536   1.931       .  S
C1528     Br1532   1.931       .  S
C1537      C1538   1.414       .  A
C1537      C1542   1.413       .  A
C1538      C1539   1.408       .  A
C1538     Br1550   1.932       .  S
C1539      C1540   1.409       .  A
C1539     Br1554   1.931       .  S
C1540      C1543   1.489   1_556  S
C1540      C1541   1.409       .  A
C1541      C1542   1.410       .  A
C1541     Br1549   1.929       .  S
C1542     Br1553   1.928       .  S
C1543      C1544   1.407       .  A
C1543      C1548   1.410       .  A
C1544      C1545   1.407       .  A
C1544     Br1555   1.931       .  S
C1545      C1546   1.416       .  A
C1545     Br1551   1.933       .  S
C1546      C1547   1.414       .  A
C1547      C1548   1.412       .  A
C1547     Br1556   1.930       .  S
C1548     Br1552   1.929   1_554  S
C1557      C1558   1.412       .  A
C1557      C1562   1.412       .  A
C1558      C1559   1.410       .  A
C1558     Br1570   1.930       .  S
C1559      C1560   1.409       .  A
C1559     Br1574   1.930       .  S
C1560      C1563   1.485       .  S
C1560      C1561   1.408       .  A
C1561      C1562   1.406       .  A
C1561     Br1569   1.931       .  S
C1562     Br1573   1.930       .  S
C1563      C1564   1.407       .  A
C1563      C1568   1.407       .  A
C1564      C1565   1.409       .  A
C1564     Br1575   1.932       .  S
C1565      C1566   1.419       .  A
C1565     Br1571   1.933   1_565  S
C1566      C1567   1.415       .  A
C1567      C1568   1.407       .  A
C1567     Br1576   1.931       .  S
C1568     Br1572   1.932       .  S
C1577      C1578   1.411       .  A
C1577      C1582   1.412       .  A
C1578      C1579   1.406       .  A
C1578     Br1590   1.930       .  S
C1579      C1580   1.409       .  A
C1579     Br1594   1.931       .  S
C1580      C1583   1.482       .  S
C1580      C1581   1.407       .  A
C1581      C1582   1.407       .  A
C1581     Br1589   1.929       .  S
C1582     Br1593   1.930       .  S
C1583      C1584   1.406       .  A
C1583      C1588   1.407       .  A
C1584      C1585   1.408       .  A
C1584     Br1595   1.930       .  S
C1585      C1586   1.416       .  A
C1585     Br1591   1.931       .  S
C1586      C1587   1.416       .  A
C1587      C1588   1.406       .  A
C1587     Br1596   1.933       .  S
C1588     Br1592   1.931       .  S
C1597      C1598   1.413       .  A
C1597      C1602   1.415       .  A
C1598      C1599   1.408       .  A
C1598     Br1610   1.932       .  S
C1599      C1600   1.409       .  A
C1599     Br1614   1.929       .  S
C1600      C1603   1.486       .  S
C1600      C1601   1.408       .  A
C1601      C1602   1.407       .  A
C1601     Br1609   1.931       .  S
C1602     Br1613   1.934       .  S
C1603      C1604   1.409       .  A
C1603      C1608   1.410       .  A
C1604      C1605   1.407       .  A
C1604     Br1615   1.930       .  S
C1605      C1606   1.410       .  A
C1605     Br1611   1.930       .  S
C1606      C1607   1.409       .  A
C1607      C1608   1.410       .  A
C1607     Br1616   1.926       .  S
C1608     Br1612   1.929       .  S
C1617      C1618   1.416       .  A
C1617      C1622   1.418       .  A
C1618      C1619   1.409       .  A
C1618     Br1630   1.932       .  S
C1619      C1620   1.407       .  A
C1619     Br1634   1.930   1_556  S
C1620      C1623   1.483   1_556  S
C1620      C1621   1.406       .  A
C1621      C1622   1.406       .  A
C1621     Br1629   1.932       .  S
C1622     Br1633   1.935       .  S
C1623      C1624   1.407       .  A
C1623      C1628   1.408       .  A
C1624      C1625   1.408       .  A
C1624     Br1635   1.930       .  S
C1625      C1626   1.414       .  A
C1625     Br1631   1.932       .  S
C1626      C1627   1.413       .  A
C1627      C1628   1.407       .  A
C1627     Br1636   1.930       .  S
C1628     Br1632   1.932       .  S
C1637      C1638   1.411       .  A
C1637      C1642   1.414       .  A
C1638      C1639   1.407       .  A
C1638     Br1650   1.931       .  S
C1639      C1640   1.409       .  A
C1639     Br1654   1.931       .  S
C1640      C1643   1.485       .  S
C1640      C1641   1.409       .  A
C1641      C1642   1.409       .  A
C1641     Br1649   1.930       .  S
C1642     Br1653   1.933       .  S
C1643      C1644   1.408       .  A
C1643      C1648   1.409       .  A
C1644      C1645   1.406       .  A
C1644     Br1655   1.931       .  S
C1645      C1646   1.411       .  A
C1645     Br1651   1.931       .  S
C1646      C1647   1.414       .  A
C1647      C1648   1.410       .  A
C1647     Br1656   1.932       .  S
C1648     Br1652   1.929       .  S
C1657      C1658   1.419       .  A
C1657      C1662   1.416       .  A
C1658      C1659   1.408       .  A
C1658     Br1670   1.934       .  S
C1659      C1660   1.406       .  A
C1659     Br1674   1.932       .  S
C1660      C1663   1.485       .  S
C1660      C1661   1.407       .  A
C1661      C1662   1.408       .  A
C1661     Br1669   1.931       .  S
C1662     Br1673   1.933       .  S
C1663      C1664   1.409       .  A
C1663      C1668   1.409       .  A
C1664      C1665   1.406       .  A
C1664     Br1675   1.932       .  S
C1665      C1666   1.413       .  A
C1665     Br1671   1.934       .  S
C1666      C1667   1.411       .  A
C1667      C1668   1.409       .  A
C1667     Br1676   1.930       .  S
C1668     Br1672   1.929       .  S
C1677      C1678   1.416       .  A
C1677      C1682   1.416       .  A
C1678      C1679   1.408       .  A
C1678     Br1690   1.931       .  S
C1679      C1680   1.406       .  A
C1679     Br1694   1.930       .  S
C1680      C1683   1.481       .  S
C1680      C1681   1.407       .  A
C1681      C1682   1.407       .  A
C1681     Br1689   1.932       .  S
C1682     Br1693   1.933       .  S
C1683      C1684   1.407       .  A
C1683      C1688   1.409       .  A
C1684      C1685   1.405       .  A
C1684     Br1695   1.930       .  S
C1685      C1686   1.410       .  A
C1685     Br1691   1.925       .  S
C1686      C1687   1.411       .  A
C1687      C1688   1.406       .  A
C1687     Br1696   1.933       .  S
C1688     Br1692   1.929       .  S
