geometry optimzed in LAMMPS
_audit_creation_date              2020-12-01 
_audit_creation_method            'lammps2cif' 
_symmetry_space_group_name_H-M    'P1' 
_symmetry_Int_Tables_number       1 
_symmetry_cell_setting            triclinic 
loop_ 
_symmetry_equiv_pos_as_xyz 
  x,y,z 
_cell_length_a                    24.7939685 
_cell_length_b                    23.030475763108633 
_cell_length_c                    23.7074204561827 
_cell_angle_alpha                 92.76183468815931 
_cell_angle_beta                  89.83611618646876 
_cell_angle_gamma                 90.30268067255174 
loop_ 
_atom_site_label 
_atom_site_type_symbol 
_atom_site_fract_x 
_atom_site_fract_y 
_atom_site_fract_z 
_atom_site_charge 
C1          C  0.26681600  0.29479883  0.30130143     0.30200
C2          C  0.22292474  0.22724320  0.21594004     0.30200
C3          C  0.30002157  0.29189776  0.24566345    -0.06000
C4          C  0.25725397  0.22983776  0.31253629    -0.06700
C5          C  0.21109430  0.31512507  0.28056661    -0.06600
C6          C  0.27760806  0.25619919  0.20373561    -0.06000
C7          C  0.23442076  0.19401125  0.27077277    -0.06700
C8          C  0.18740188  0.27911046  0.23862389    -0.06600
C9          C  0.31094279  0.25664072  0.15714749    -0.32000
N10         N  0.35253994  0.29359783  0.16767208     0.14500
C11         C  0.34645261  0.31588453  0.22194247    -0.32000
H12         H  0.37353777  0.34718301  0.24251598     0.16400
C13         C  0.22898044  0.13925685  0.29547463    -0.31000
N14         N  0.24924517  0.14258440  0.34968661     0.13200
C15         C  0.26764313  0.19727511  0.35831331    -0.31000
C16         C  0.13952793  0.30571517  0.22356290    -0.31300
N17         N  0.13614197  0.35905458  0.25076399     0.13700
H18         H  0.11084407  0.28902213  0.19244564     0.16300
C19         C  0.18090410  0.36594513  0.28362797    -0.31300
H20         H  0.19187998  0.40630675  0.30587288     0.16300
H21         H  0.28737204  0.21246373  0.39656178     0.16300
H22         H  0.30540094  0.23154520  0.11778823     0.16400
H23         H  0.21053651  0.10064510  0.27601858     0.16300
N24         N  0.99582119  0.41856645  0.23813272    -0.36400
N25         N  0.07892786  0.50818264  0.23853530    -0.56900
N26         N  0.99664133  0.60049377  0.22179245    -0.36400
N27         N  0.91373482  0.51002454  0.23139806    -0.56900
C28         C  0.03929559  0.38746387  0.25356991     0.27200
C29         C  0.95085608  0.38902240  0.25284308     0.27200
C30         C  0.04123076  0.63265263  0.23681932     0.27200
C31         C  0.95154682  0.63346934  0.23190623     0.27200
C32         C  0.10915539  0.45944370  0.22908933     0.35800
C33         C  0.10934819  0.55352310  0.22191933     0.35800
C34         C  0.88353382  0.46097560  0.22274591     0.35800
C35         C  0.88454909  0.55441736  0.21152766     0.35800
C36         C  0.02172597  0.33720338  0.27790973    -0.21700
C37         C  0.96594786  0.33823335  0.27754087    -0.21700
C38         C  0.02410346  0.68735442  0.25627160    -0.21700
C39         C  0.96798033  0.68784316  0.25322237    -0.21700
C40         C  0.15831327  0.47373385  0.20577175    -0.22700
C41         C  0.15819004  0.53294583  0.20058503    -0.22700
C42         C  0.83562997  0.47397298  0.19659908    -0.22700
C43         C  0.83665134  0.53273307  0.18859027    -0.22700
C44         C  0.09415983  0.40243765  0.24384608    -0.18100
C45         C  0.89681191  0.40510082  0.24132185    -0.18100
C46         C  0.89651685  0.61478952  0.22187238    -0.18100
C47         C  0.09656838  0.61360886  0.23175764    -0.18100
H48         H  0.04643241  0.30328437  0.29424526     0.14800
H49         H  0.93956164  0.30510290  0.29332649     0.14800
H50         H  0.04921735  0.72313180  0.27189926     0.14800
H51         H  0.94236202  0.72396992  0.26615734     0.14800
H52         H  0.19068300  0.44444122  0.19330542     0.13100
H53         H  0.19060144  0.55806969  0.18310679     0.13100
H54         H  0.80325834  0.44417348  0.18468334     0.13100
H55         H  0.80477764  0.55713296  0.16971638     0.13100
H56         H  0.99674488  0.45503582  0.21395922     0.26400
H57         H  0.99732238  0.55913836  0.20202380     0.26400
C58         C  0.75510324  0.78287130  0.21362189     0.30200
C59         C  0.70471046  0.69820882  0.26995662     0.30200
C60         C  0.79126907  0.72967714  0.22408107    -0.06000
C61         C  0.73243012  0.80065017  0.27229810    -0.06700
C62         C  0.70563087  0.75470903  0.18238862    -0.06600
C63         C  0.76558170  0.68642623  0.25278927    -0.06000
C64         C  0.70720247  0.75901066  0.30264309    -0.06700
C65         C  0.67976067  0.71163597  0.21134078    -0.06600
C66         C  0.80290865  0.64121929  0.25434574    -0.32000
N67         N  0.85035625  0.65506379  0.22890300     0.14500
C68         C  0.84309001  0.70924451  0.20905064    -0.32000
H69         H  0.87236774  0.73152569  0.18384732     0.16400
C70         C  0.69471211  0.78785261  0.35533698    -0.31000
N71         N  0.71151365  0.84529296  0.35563545     0.13200
C72         C  0.73418466  0.85204497  0.30465524    -0.31000
C73         C  0.63772673  0.69071097  0.17643010    -0.31300
N74         N  0.63651419  0.72034079  0.12825502     0.13700
H75         H  0.60980978  0.65590098  0.18428784     0.16300
C76         C  0.67900983  0.75809445  0.13060090    -0.31300
H77         H  0.68966109  0.78567930  0.09660780     0.16300
H78         H  0.75279407  0.89204120  0.29252245     0.16300
H79         H  0.79592201  0.59909909  0.27078085     0.16400
H80         H  0.67579002  0.76795594  0.39083049     0.16300
N81         N  0.26405998  0.99670992  0.41473381    -0.36400
N82         N  0.27179816  0.91567321  0.50574890    -0.56900
N83         N  0.26724849  0.01468297  0.58798636    -0.36400
N84         N  0.27054699  0.09603040  0.49686244    -0.56900
C85         C  0.28547992  0.94881174  0.38747333     0.27200
C86         C  0.27024189  0.04237557  0.38093893     0.27200
C87         C  0.27413201  0.96897353  0.62161364     0.27200
C88         C  0.28732048  0.06347709  0.61544690     0.27200
C89         C  0.26357140  0.87868803  0.46007651     0.35800
C90         C  0.24984799  0.89021601  0.55097173     0.35800
C91         C  0.24630899  0.12023640  0.45226352     0.35800
C92         C  0.26322512  0.13302246  0.54291025     0.35800
C93         C  0.30677867  0.96516122  0.33623180    -0.21700
C94         C  0.29641523  0.02375814  0.33178124    -0.21700
C95         C  0.29946247  0.98853365  0.67093709    -0.21700
C96         C  0.30842728  0.04765291  0.66675396    -0.21700
C97         C  0.23610344  0.82980536  0.47599104    -0.22700
C98         C  0.22666005  0.83737947  0.53320551    -0.22700
C99         C  0.22239899  0.17216538  0.47104182    -0.22700
C100        C  0.23418876  0.18081024  0.52773535    -0.22700
C101        C  0.27893673  0.88990046  0.40393436    -0.18100
C102        C  0.25210820  0.10002627  0.39402219    -0.18100
C103        C  0.27996586  0.12246502  0.59899855    -0.18100
C104        C  0.25686561  0.91054340  0.60860579    -0.18100
H105        H  0.32635808  0.93732718  0.30438084     0.14800
H106        H  0.30745203  0.04965861  0.29661544     0.14800
H107        H  0.31055892  0.96296385  0.70618735     0.14800
H108        H  0.32707194  0.07613733  0.69873468     0.14800
H109        H  0.22247209  0.79362563  0.44885094     0.13100
H110        H  0.20556773  0.80693622  0.55888348     0.13100
H111        H  0.19950545  0.20157107  0.44624237     0.13100
H112        H  0.22113625  0.21708294  0.55502928     0.13100
H113        H  0.24088071  0.99738906  0.45145180     0.26400
H114        H  0.24435447  0.01323208  0.55122366     0.26400
N115        N  0.72580361  0.00032368  0.41257160    -0.36400
N116        N  0.72200716  0.91676375  0.50270705    -0.56900
N117        N  0.72723504  0.01403329  0.58721305    -0.36400
N118        N  0.71947687  0.09805678  0.49745175    -0.56900
C119        C  0.70513198  0.95188486  0.38477272     0.27200
C120        C  0.71781333  0.04680746  0.38003220     0.27200
C121        C  0.72082262  0.96728440  0.61991972     0.27200
C122        C  0.70660691  0.06168231  0.61599163     0.27200
C123        C  0.72846199  0.88035301  0.45617110     0.35800
C124        C  0.74323951  0.88971658  0.54730179     0.35800
C125        C  0.73982928  0.12548576  0.45222277     0.35800
C126        C  0.72633620  0.13446765  0.54417728     0.35800
C127        C  0.68232381  0.96884894  0.33463445    -0.21700
C128        C  0.69112951  0.02807870  0.33125436    -0.21700
C129        C  0.69547987  0.98514761  0.66976983    -0.21700
C130        C  0.68573123  0.04402725  0.66694180    -0.21700
C131        C  0.75432572  0.83032132  0.47106738    -0.22700
C132        C  0.76452047  0.83664391  0.52818381    -0.22700
C133        C  0.76085789  0.17898865  0.47126787    -0.22700
C134        C  0.75122672  0.18513837  0.52869148    -0.22700
C135        C  0.71205437  0.89236219  0.40034176    -0.18100
C136        C  0.73431855  0.10549873  0.39368427    -0.18100
C137        C  0.71230364  0.12139296  0.60087558    -0.18100
C138        C  0.73735063  0.90899836  0.60557818    -0.18100
H139        H  0.66223264  0.94119148  0.30294447     0.14800
H140        H  0.67843429  0.05443317  0.29716526     0.14800
H141        H  0.68429278  0.95845717  0.70431056     0.14800
H142        H  0.66639329  0.07107779  0.69957005     0.14800
H143        H  0.76617685  0.79372913  0.44357460     0.13100
H144        H  0.78482612  0.80512709  0.55288386     0.13100
H145        H  0.78111313  0.21075527  0.44647975     0.13100
H146        H  0.76313356  0.22186288  0.55611982     0.13100
H147        H  0.74922205  0.00115910  0.44900068     0.26400
H148        H  0.74956524  0.01408511  0.54995307     0.26400
C149        C  0.22747426  0.78325585  0.78636651     0.30200
C150        C  0.27461048  0.71656058  0.70254719     0.30200
C151        C  0.19307503  0.73060504  0.76226831    -0.06000
C152        C  0.24007460  0.81669694  0.73169593    -0.06700
C153        C  0.28216414  0.75544968  0.79984696    -0.06600
C154        C  0.21755889  0.69556903  0.72042235    -0.06000
C155        C  0.26553640  0.78151154  0.69086720    -0.06700
C156        C  0.30523555  0.71921012  0.75902966    -0.06600
C157        C  0.18447439  0.64650733  0.71222955    -0.32000
N158        N  0.13920551  0.65259329  0.74504588     0.14500
C159        C  0.14413286  0.70414136  0.77527536    -0.32000
H160        H  0.11533342  0.71991162  0.80672032     0.16400
C161        C  0.27614679  0.81402454  0.64481982    -0.31000
N162        N  0.25540112  0.86771964  0.65257077     0.13200
C163        C  0.23201914  0.86995036  0.70520966    -0.31000
C164        C  0.34954199  0.69383846  0.78432726    -0.31300
N165        N  0.35519968  0.71729200  0.83800587     0.13700
H166        H  0.37581325  0.66108483  0.76509439     0.16300
C167        C  0.31436629  0.75530635  0.84717254    -0.31300
H168        H  0.30815164  0.78078543  0.88619252     0.16300
H169        H  0.20797878  0.90616138  0.72072240     0.16300
H170        H  0.19341963  0.60829099  0.68557301     0.16400
H171        H  0.29630139  0.79914447  0.60659111     0.16300
N172        N  0.07868060  0.50391189  0.75731381    -0.36400
N173        N  0.99540121  0.41287224  0.77441705    -0.56900
N174        N  0.91344548  0.50415908  0.76168563    -0.36400
N175        N  0.99680978  0.59481225  0.75498067    -0.56900
C176        C  0.10644082  0.45930136  0.77886206     0.27200
C177        C  0.10811353  0.55337856  0.76805359     0.27200
C178        C  0.88376275  0.45940076  0.78137984     0.27200
C179        C  0.88433083  0.55385277  0.77083101     0.27200
C180        C  0.03984669  0.37910552  0.76359450     0.35800
C181        C  0.95038991  0.37908244  0.76554912     0.35800
C182        C  0.04101903  0.62648988  0.74127602     0.35800
C183        C  0.95274177  0.62677398  0.74280574     0.35800
C184        C  0.15193651  0.48132380  0.80597919    -0.21700
C185        C  0.15393713  0.54024023  0.79795693    -0.21700
C186        C  0.83646208  0.48172591  0.80509524    -0.21700
C187        C  0.83652144  0.54076379  0.79774671    -0.21700
C188        C  0.02270671  0.32333673  0.74756519    -0.22700
C189        C  0.96664378  0.32333301  0.74879952    -0.22700
C190        C  0.02490586  0.67887633  0.72065275    -0.22700
C191        C  0.96916463  0.67905504  0.72159137    -0.22700
C192        C  0.09511434  0.39869469  0.76961008    -0.18100
C193        C  0.09556256  0.60992493  0.75031717    -0.18100
C194        C  0.89807763  0.61041428  0.75302953    -0.18100
C195        C  0.89534704  0.39849425  0.77333096    -0.18100
H196        H  0.17978372  0.45697588  0.83028848     0.14800
H197        H  0.18478854  0.57026040  0.81360644     0.14800
H198        H  0.80454240  0.45784372  0.82505078     0.14800
H199        H  0.80488636  0.57074757  0.81083837     0.14800
H200        H  0.04764558  0.28653221  0.73506303     0.13100
H201        H  0.94103647  0.28657711  0.73725409     0.13100
H202        H  0.05058095  0.71345021  0.70650914     0.13100
H203        H  0.94370729  0.71380340  0.70820250     0.13100
H204        H  0.04495618  0.49980281  0.73121142     0.26400
H205        H  0.94841636  0.50003843  0.73739295     0.26400
C206        C  0.70402188  0.31045518  0.74138279     0.30200
C207        C  0.75773064  0.22453864  0.79111635     0.30200
C208        C  0.76389410  0.32356916  0.75643568    -0.06000
C209        C  0.67918599  0.29005213  0.79688791    -0.06700
C210        C  0.70744769  0.25126584  0.70421041    -0.06600
C211        C  0.79174525  0.28083442  0.78285852    -0.06000
C212        C  0.70688852  0.24772520  0.82394505    -0.06700
C213        C  0.73553506  0.20922544  0.73137287    -0.06600
C214        C  0.84406029  0.30335250  0.79284846    -0.32000
N215        N  0.84900244  0.35735787  0.77099941     0.14500
C216        C  0.79977842  0.36878573  0.74811356    -0.32000
H217        H  0.79019163  0.40775390  0.72652056     0.16400
C218        C  0.67823845  0.23950732  0.87416145    -0.31000
N219        N  0.63269213  0.27271320  0.87552817     0.13200
C220        C  0.63319165  0.30363780  0.82830447    -0.31000
C221        C  0.73882997  0.15976374  0.69618968    -0.31300
N222        N  0.71353904  0.16728427  0.64688644     0.13700
H223        H  0.75917340  0.12010520  0.70560328     0.16300
C224        C  0.69326204  0.22308281  0.65117356    -0.31300
H225        H  0.66971010  0.24156403  0.61829628     0.16300
H226        H  0.60234762  0.33436391  0.81781896     0.16300
H227        H  0.87577179  0.28197498  0.81508790     0.16400
H228        H  0.68966701  0.21202572  0.90782786     0.16300
N229        N  0.49600882  0.69796637  0.89260196    -0.36400
N230        N  0.41249154  0.71317343  0.98194527    -0.56900
N231        N  0.49497646  0.71297502  0.06936814    -0.36400
N232        N  0.57870283  0.70789996  0.98113235    -0.56900
C233        C  0.45210617  0.71271943  0.86239347     0.27200
C234        C  0.54038506  0.71053378  0.86152384     0.27200
C235        C  0.45099653  0.73019730  0.10043927     0.27200
C236        C  0.53982314  0.72618423  0.10060669     0.27200
C237        C  0.38156146  0.69969559  0.93603221     0.35800
C238        C  0.38003805  0.70911582  0.02789783     0.35800
C239        C  0.61011723  0.69554636  0.93496553     0.35800
C240        C  0.61026725  0.70204290  0.02740253     0.35800
C241        C  0.46887445  0.73441302  0.81172054    -0.21700
C242        C  0.52431545  0.73284972  0.81103463    -0.21700
C243        C  0.46833058  0.75414842  0.15205905    -0.21700
C244        C  0.52397775  0.75147091  0.15222803    -0.21700
C245        C  0.32962434  0.68614541  0.95312773    -0.22700
C246        C  0.32862792  0.69232462  0.01113613    -0.22700
C247        C  0.66151380  0.68117215  0.95229637    -0.22700
C248        C  0.66160050  0.68531900  0.01049437    -0.22700
C249        C  0.39724960  0.70703137  0.87896662    -0.18100
C250        C  0.59504995  0.70318283  0.87752259    -0.18100
C251        C  0.59474976  0.71528635  0.08459303    -0.18100
C252        C  0.39550020  0.72317149  0.08458851    -0.18100
H253        H  0.44402414  0.75172722  0.77928139     0.14800
H254        H  0.54966360  0.74846927  0.77774407     0.14800
H255        H  0.44353511  0.77234079  0.18607171     0.14800
H256        H  0.54984475  0.76727297  0.18636393     0.14800
H257        H  0.29556978  0.67421780  0.92646558     0.13100
H258        H  0.29390423  0.68547758  0.03780027     0.13100
H259        H  0.69578180  0.66976152  0.92571558     0.13100
H260        H  0.69583501  0.67754221  0.03726690     0.13100
H261        H  0.49548550  0.67714646  0.93060528     0.26400
H262        H  0.49434930  0.68891342  0.03114906     0.26400
N263        N  0.49228338  0.28088905  0.93604594    -0.36400
N264        N  0.41006148  0.28909616  0.02397889    -0.56900
N265        N  0.49379097  0.30813703  0.11187231    -0.36400
N266        N  0.57561656  0.29002491  0.02235774    -0.56900
C267        C  0.44761545  0.26461356  0.90594083     0.27200
C268        C  0.53641156  0.26453225  0.90506883     0.27200
C269        C  0.44990858  0.29524499  0.14324345     0.27200
C270        C  0.53804300  0.29532131  0.14224427     0.27200
C271        C  0.37875096  0.29552753  0.97765783     0.35800
C272        C  0.38122078  0.30957397  0.06940669     0.35800
C273        C  0.60676423  0.29455865  0.97551100     0.35800
C274        C  0.60633613  0.30845768  0.06704791     0.35800
C275        C  0.46365555  0.23746745  0.85521649    -0.21700
C276        C  0.51949047  0.23743022  0.85466890    -0.21700
C277        C  0.46647355  0.27434583  0.19422596    -0.21700
C278        C  0.52208690  0.27445459  0.19361631    -0.21700
C279        C  0.33015339  0.32064666  0.99373124    -0.22700
C280        C  0.33199758  0.32992969  0.05165040    -0.22700
C281        C  0.65709871  0.31639233  0.99049989    -0.22700
C282        C  0.65680511  0.32528282  0.04831368    -0.22700
C283        C  0.39300491  0.27745748  0.92128997    -0.18100
C284        C  0.59137663  0.27666962  0.91962481    -0.18100
C285        C  0.59229155  0.30259367  0.12477294    -0.18100
C286        C  0.39553421  0.30275922  0.12697373    -0.18100
H287        H  0.43781074  0.21996046  0.82176523     0.14800
H288        H  0.54475709  0.21985654  0.82075167     0.14800
H289        H  0.44139126  0.25937803  0.22804147     0.14800
H290        H  0.54761400  0.25957838  0.22685738     0.14800
H291        H  0.29711105  0.33163026  0.96654918     0.13100
H292        H  0.30099885  0.34981460  0.07804591     0.13100
H293        H  0.69069754  0.32474795  0.96276472     0.13100
H294        H  0.69038405  0.34115168  0.07385656     0.13100
H295        H  0.49262694  0.30763658  0.97263852     0.26400
H296        H  0.49354297  0.32826119  0.07343860     0.26400
C297        C  0.72053196  0.71387012  0.70031977     0.30200
C298        C  0.76496104  0.78245732  0.78425918     0.30200
C299        C  0.77727245  0.69451322  0.71962208    -0.06000
C300        C  0.72873713  0.77910797  0.68822458    -0.06700
C301        C  0.68826221  0.71626336  0.75654047    -0.06600
C302        C  0.80076117  0.73068329  0.76128470    -0.06000
C303        C  0.75301426  0.81507188  0.72912060    -0.06700
C304        C  0.71064111  0.75275590  0.79758320    -0.06600
C305        C  0.84962023  0.70516314  0.77545370    -0.32000
N306        N  0.85485145  0.65283996  0.74663711     0.14500
C307        C  0.80999609  0.64539152  0.71373216    -0.32000
H308        H  0.80106339  0.60618171  0.68843139     0.16400
C309        C  0.76143735  0.86829619  0.70246361    -0.31000
N310        N  0.73912994  0.86553070  0.64930013     0.13200
C311        C  0.71842636  0.81139122  0.64185566    -0.31000
C312        C  0.67842463  0.75129661  0.84523093    -0.31300
N313        N  0.63751280  0.71309549  0.83605706     0.13700
H314        H  0.68441291  0.77640751  0.88448705     0.16300
C315        C  0.64311396  0.69081276  0.78166627    -0.31300
H316        H  0.61651035  0.65849921  0.76190636     0.16300
H317        H  0.69780624  0.79612219  0.60405255     0.16300
H318        H  0.87796730  0.72198138  0.80688007     0.16400
H319        H  0.78461562  0.90510689  0.71891549     0.16300
C320        C  0.76539770  0.23166079  0.21350117     0.30200
C321        C  0.72141487  0.29990143  0.29745223     0.30200
C322        C  0.80059534  0.28422212  0.23526664    -0.06000
C323        C  0.71069020  0.25946749  0.20101808    -0.06700
C324        C  0.75382315  0.19892637  0.26918294    -0.06600
C325        C  0.77739218  0.32016368  0.27706567    -0.06000
C326        C  0.68857317  0.29609860  0.24199342    -0.06700
C327        C  0.73014502  0.23511163  0.31023517    -0.06600
C328        C  0.80960505  0.36978658  0.28236321    -0.32000
N329        N  0.85367832  0.36286794  0.24827803     0.14500
C330        C  0.84861957  0.31056996  0.21960054    -0.32000
H331        H  0.87661031  0.29427621  0.18756683     0.16400
C332        C  0.64219855  0.31908937  0.21811865    -0.31000
N333        N  0.63553349  0.29467511  0.16489356     0.13200
C334        C  0.67704957  0.25791174  0.15485120    -0.31000
C335        C  0.71844714  0.20299746  0.35644069    -0.31300
N336        N  0.73737292  0.14834590  0.34910860     0.13700
H337        H  0.69736121  0.21855296  0.39384222     0.16300
C338        C  0.75917567  0.14487830  0.29535805    -0.31300
H339        H  0.77873128  0.10651394  0.27717230     0.16300
H340        H  0.68244509  0.23175606  0.11609784     0.16300
H341        H  0.80102780  0.40873204  0.30813512     0.16400
H342        H  0.61543450  0.35111053  0.23776087     0.16300
C343        C  0.23129951  0.22611720  0.78656954     0.30200
C344        C  0.28837922  0.31164445  0.73867942     0.30200
C345        C  0.28034294  0.24945328  0.82171663    -0.06000
C346        C  0.25524255  0.21103697  0.72767299    -0.06700
C347        C  0.19836155  0.28223186  0.77673857    -0.06600
C348        C  0.30984013  0.29129181  0.79561147    -0.06000
C349        C  0.28487117  0.25292969  0.70120085    -0.06700
C350        C  0.22732680  0.32518139  0.75092334    -0.06600
C351        C  0.35403938  0.30553026  0.82947415    -0.32000
N352        N  0.35177765  0.27530506  0.87713219     0.14500
C353        C  0.30604379  0.24179142  0.87357632    -0.32000
H354        H  0.29300519  0.21313767  0.90584148     0.16400
C355        C  0.29823440  0.22542548  0.64773669    -0.31000
N356        N  0.27769472  0.16933355  0.64373711     0.13200
C357        C  0.25083403  0.16209217  0.69224648    -0.31000
C358        C  0.19131643  0.37054093  0.74328339    -0.31300
N359        N  0.14162280  0.35825684  0.76573684     0.13700
H360        H  0.20129526  0.41046493  0.72324969     0.16300
C361        C  0.14619364  0.30413435  0.78681086    -0.31300
H362        H  0.11448288  0.28260404  0.80939621     0.16300
H363        H  0.22844126  0.12309323  0.70090848     0.16300
H364        H  0.38582128  0.33600277  0.82003336     0.16400
H365        H  0.32059002  0.24499335  0.61426924     0.16300
C366        C  0.28792735  0.70082507  0.26758809     0.30200
C367        C  0.23353087  0.78556252  0.21625750     0.30200
C368        C  0.22701247  0.68805775  0.25502551    -0.06000
C369        C  0.28487004  0.75994150  0.30321662    -0.06700
C370        C  0.31064061  0.71889320  0.21027762    -0.06600
C371        C  0.19989745  0.72976529  0.22652232    -0.06000
C372        C  0.25673056  0.80152397  0.27530841    -0.06700
C373        C  0.28307120  0.76094725  0.18248407    -0.06600
C374        C  0.14812849  0.70749023  0.21484294    -0.32000
N375        N  0.14201403  0.65489567  0.23842080     0.14500
C376        C  0.18990809  0.64397543  0.26431978    -0.32000
H377        H  0.19806600  0.60527555  0.28694599     0.16400
C378        C  0.25167692  0.85040496  0.31037671    -0.31000
N379        N  0.27709052  0.84322196  0.35951059     0.13200
C380        C  0.29673179  0.78718864  0.35676114    -0.31000
C381        C  0.30948516  0.76453236  0.13019815    -0.31300
N382        N  0.35387522  0.72925829  0.12842014     0.13700
H383        H  0.29679748  0.78945952  0.09521813     0.16300
C384        C  0.35391781  0.70072103  0.17700494    -0.31300
H385        H  0.38354933  0.66861332  0.18741562     0.16300
H386        H  0.31707496  0.76742963  0.39121388     0.16300
H387        H  0.11769440  0.72764509  0.18977286     0.16400
H388        H  0.22955103  0.88914127  0.30122305     0.16300
N389        N  0.04863529  0.95004629  0.10878166    -0.05900
N390        N  0.09042354  0.92349267  0.12819602    -0.58000
N391        N  0.92619515  0.00690314  0.12222807    -0.05600
N392        N  0.87974774  0.02107624  0.14631325    -0.60100
N393        N  0.92530730  0.95283311  0.10243198    -0.05200
N394        N  0.87758915  0.93033325  0.10948041    -0.58000
N395        N  0.04770279  0.00422082  0.12811177    -0.04800
N396        N  0.08813519  0.01560219  0.16299362    -0.60500
C397        C  0.11451259  0.96461066  0.16180201     0.96300
C398        C  0.84966691  0.97246921  0.13751864     0.96100
N399        N  0.93253283  0.13012960  0.00524694    -0.06100
N400        N  0.88482336  0.14867786  0.98943129    -0.58600
N401        N  0.05518111  0.11118799  0.06119412    -0.04200
N402        N  0.10332524  0.10985333  0.08328943    -0.59800
N403        N  0.05816650  0.12423704  0.00795318    -0.06100
N404        N  0.10891801  0.13352445  0.99353719    -0.58900
N405        N  0.93159071  0.11708679  0.05841507    -0.03800
N406        N  0.88352610  0.12541174  0.07980001    -0.59900
Mn407      Mn  0.99004818  0.06247598  0.09507081     1.18400
C408        C  0.85467837  0.14366747  0.03626818     0.98400
C409        C  0.13650189  0.12257354  0.04079705     0.99000
N410        N  0.92781644  0.87803236  0.99584464    -0.06100
N411        N  0.87892471  0.86209613  0.01096107    -0.62400
N412        N  0.05213583  0.88973513  0.94445768    -0.04900
N413        N  0.09942563  0.88000305  0.92165275    -0.63100
N414        N  0.05244329  0.87767081  0.99803708    -0.05600
N415        N  0.10034135  0.85879958  0.01288582    -0.62700
N416        N  0.92846032  0.89217540  0.94298643    -0.04500
N417        N  0.87997872  0.88775306  0.92154149    -0.63400
Mn418      Mn  0.98890325  0.91170926  0.05292738     1.10700
C419        C  0.84941350  0.87041636  0.96465011     0.99600
C420        C  0.12898166  0.86166429  0.96469327     0.99700
N421        N  0.05533445  0.05390633  0.89753710    -0.05600
N422        N  0.09773945  0.08047224  0.87894440    -0.61000
N423        N  0.93231281  0.00131247  0.87816013    -0.05000
N424        N  0.88703918  0.98797971  0.85144731    -0.57700
N425        N  0.93236415  0.05570902  0.89715092    -0.06300
N426        N  0.88639079  0.07985684  0.88608610    -0.60600
N427        N  0.05391130  0.99981478  0.87790776    -0.05300
N428        N  0.09454482  0.98889310  0.84294231    -0.57800
Mn429      Mn  0.99478005  0.09415416  0.95049560     1.20200
Mn430      Mn  0.99186468  0.94328575  0.90822597     1.10100
Cl431      Cl  0.99158241  0.00285758  0.00160129    -0.85700
C432        C  0.12163620  0.03998634  0.84488943     0.96600
C433        C  0.85859286  0.03748891  0.85767350     0.96400
N434        N  0.59438189  0.41862604  0.51958793    -0.05900
N435        N  0.63655856  0.38591192  0.52680707    -0.58000
N436        N  0.56059848  0.45464979  0.38825402    -0.05600
N437        N  0.57015608  0.45957964  0.33341878    -0.60100
N438        N  0.60165475  0.47562983  0.41659640    -0.05200
N439        N  0.64135837  0.48832631  0.38394165    -0.58000
N440        N  0.55390953  0.38609342  0.50157929    -0.04800
N441        N  0.56689341  0.33109598  0.50265511    -0.60500
C442        C  0.62090156  0.33195729  0.50862548     0.96300
C443        C  0.62122434  0.48280427  0.33175086     0.96100
N444        N  0.39094148  0.47739602  0.41126925    -0.06100
N445        N  0.36048483  0.50195630  0.37473543    -0.58600
N446        N  0.43454512  0.38371576  0.49792730    -0.04200
N447        N  0.42364045  0.32837230  0.50195958    -0.59800
N448        N  0.39418566  0.41489637  0.51760621    -0.06100
N449        N  0.35409993  0.38081582  0.53154270    -0.58900
N450        N  0.43402372  0.45491033  0.38712769    -0.03800
N451        N  0.43546470  0.46807585  0.33340777    -0.59900
Mn452      Mn  0.49556605  0.41773480  0.44119657     1.18400
C453        C  0.38864610  0.49729540  0.32649734     0.98400
C454        C  0.37014256  0.32705457  0.51270401     0.99000
N455        N  0.59425233  0.59730796  0.47736181    -0.06100
N456        N  0.63552895  0.63105430  0.46647920    -0.62400
N457        N  0.55699525  0.55926527  0.61070400    -0.04900
N458        N  0.55790504  0.54513906  0.66443636    -0.63100
N459        N  0.60085063  0.54016680  0.58589914    -0.05600
N460        N  0.63445359  0.51941159  0.62199868    -0.62700
N461        N  0.55369254  0.62892947  0.49613889    -0.04500
N462        N  0.56596504  0.68417853  0.49406108    -0.63400
Mn463      Mn  0.59842360  0.50816271  0.50010460     1.10700
C464        C  0.61993724  0.68432951  0.48701435     0.99600
C465        C  0.60672665  0.51875263  0.67067694     0.99700
N466        N  0.38929089  0.53269775  0.58527732    -0.05600
N467        N  0.35964335  0.50716227  0.62237593    -0.61000
N468        N  0.43325949  0.62706495  0.49586290    -0.05000
N469        N  0.42055940  0.68186953  0.49171349    -0.57700
N470        N  0.39308700  0.59419185  0.47785672    -0.06300
N471        N  0.35157418  0.62642166  0.46560079    -0.60600
N472        N  0.43134503  0.55800322  0.60907862    -0.05300
N473        N  0.43295182  0.54588398  0.66305485    -0.57800
Mn474      Mn  0.39024826  0.50471692  0.49820768     1.20200
Mn475      Mn  0.49369485  0.59571472  0.55516463     1.10100
Cl476      Cl  0.49442516  0.50651860  0.49880181    -0.85700
C477        C  0.38777567  0.51347818  0.67053289     0.96600
C478        C  0.36640549  0.68050622  0.48451310     0.96400
C479        C  0.15243457  0.84645516  0.22781250    -0.26100
C480        C  0.20302257  0.83915720  0.20021944    -0.14200
C481        C  0.23048876  0.89134492  0.18560117     0.36500
C482        C  0.20325284  0.94413459  0.18879702    -0.25500
C483        C  0.14959325  0.94635349  0.20533498    -0.14800
C484        C  0.12775997  0.90027257  0.23383612     0.37600
N485        N  0.07559779  0.90565212  0.25978338    -0.89000
H486        H  0.13344930  0.81199041  0.24994194     0.18700
H487        H  0.22212737  0.98211562  0.17203772     0.18700
N488        N  0.28646206  0.89411633  0.17129958    -0.88100
H489        H  0.07909485  0.89390983  0.30166166     0.36000
H490        H  0.04941765  0.87595896  0.23908521     0.41100
H491        H  0.29222334  0.87625432  0.13071234     0.40800
H492        H  0.30977973  0.87372473  0.20107756     0.35600
C493        C  0.30774322  0.59536610  0.25202717    -0.26100
C494        C  0.31974995  0.64780945  0.28328352    -0.14200
C495        C  0.37026720  0.65164386  0.31054529     0.36500
C496        C  0.40097518  0.60099721  0.31571838    -0.25500
C497        C  0.38308059  0.54705608  0.29187260    -0.14800
C498        C  0.33818115  0.54542135  0.25682840     0.37600
N499        N  0.32031927  0.49139291  0.23050086    -0.89000
H500        H  0.27486650  0.59276537  0.22228465     0.18700
H501        H  0.43559483  0.60268961  0.34351096     0.18700
N502        N  0.39137938  0.70650226  0.33124053    -0.88100
H503        H  0.31793321  0.49649369  0.18701696     0.36000
H504        H  0.28148086  0.48262802  0.24533112     0.41100
H505        H  0.39992428  0.70371480  0.37412131     0.40800
H506        H  0.42775649  0.71384466  0.31026551     0.35600
C507        C  0.36373776  0.36011283  0.68425418    -0.26100
C508        C  0.32205658  0.36446882  0.72429486    -0.14200
C509        C  0.32016199  0.41572460  0.76068300     0.36500
C510        C  0.35154659  0.46416193  0.74922710    -0.25500
C511        C  0.38689473  0.46211950  0.70400116    -0.14800
C512        C  0.39770443  0.40807254  0.67549740     0.37600
N513        N  0.44015045  0.40416497  0.63414716    -0.89000
H514        H  0.37053753  0.31961949  0.66051289     0.18700
H515        H  0.34447897  0.50507982  0.77260402     0.18700
N516        N  0.28692027  0.41889748  0.81014984    -0.88100
H517        H  0.44354116  0.36147391  0.61752767     0.36000
H518        H  0.47642194  0.41384229  0.65501213     0.41100
H519        H  0.31219555  0.42437114  0.84526521     0.40800
H520        H  0.26426234  0.45675176  0.80851853     0.35600
C521        C  0.15202003  0.16077467  0.77676062    -0.26100
C522        C  0.20237041  0.17165414  0.80306835    -0.14200
C523        C  0.23269262  0.12229093  0.81836175     0.36500
C524        C  0.20838689  0.06751117  0.81752725    -0.18500
C525        C  0.15512693  0.06056678  0.80065060    -0.14800
C526        C  0.13051894  0.10480902  0.77164441     0.37600
N527        N  0.07897048  0.09491346  0.74563550    -0.89000
H528        H  0.13110413  0.19436316  0.75545129     0.18700
H529        H  0.22917649  0.03199132  0.83632624     0.18700
N530        N  0.28913396  0.12610311  0.83037006    -0.88100
H531        H  0.08204578  0.10631969  0.70358658     0.36000
H532        H  0.05100834  0.12274147  0.76585219     0.41100
H533        H  0.29559935  0.10995443  0.87025862     0.40800
H534        H  0.30961315  0.09927741  0.80073851     0.35600
C535        C  0.77126023  0.13118332  0.08109045    -0.26100
C536        C  0.80111856  0.16609987  0.04557586    -0.14200
C537        C  0.80291590  0.22530666  0.05871693     0.36500
C538        C  0.79688015  0.24399866  0.11501504    -0.25500
C539        C  0.78311361  0.20444031  0.15725311    -0.14800
C540        C  0.76477110  0.14878588  0.13821348     0.37600
N541        N  0.73804880  0.11131431  0.17570899    -0.89000
H542        H  0.76256519  0.08677470  0.06725870     0.18700
H543        H  0.79962683  0.29027898  0.12461775     0.18700
N544        N  0.81906352  0.26482927  0.01694434    -0.88100
H545        H  0.76120694  0.07388450  0.17855402     0.36000
H546        H  0.70042816  0.09977649  0.15866347     0.41100
H547        H  0.85463097  0.28559953  0.03058955     0.40800
H548        H  0.78912048  0.29642340  0.01469259     0.35600
C549        C  0.70434346  0.32896260  0.45238026    -0.26100
C550        C  0.65026845  0.31190244  0.45730731    -0.14200
C551        C  0.62058225  0.29881630  0.40749402     0.36500
C552        C  0.64144668  0.31328442  0.35587514    -0.25500
C553        C  0.69614991  0.32796488  0.34964938    -0.14800
C554        C  0.72782875  0.33584006  0.39946609     0.37600
N555        N  0.78475354  0.34574920  0.39680275    -0.89000
H556        H  0.72808221  0.33859070  0.49006391     0.18700
H557        H  0.61660496  0.30147812  0.31991762     0.18700
N558        N  0.56933040  0.26955969  0.40871540    -0.88100
H559        H  0.79364610  0.38416592  0.42030375     0.36000
H560        H  0.80423691  0.31151340  0.41562745     0.41100
H561        H  0.57228127  0.23078705  0.38409845     0.40800
H562        H  0.54061652  0.29573021  0.39018402     0.35600
C563        C  0.70267954  0.68462225  0.54476657    -0.26100
C564        C  0.64908306  0.70246040  0.53965797    -0.14200
C565        C  0.61931302  0.71615856  0.58975973     0.36500
C566        C  0.64012913  0.70177536  0.64172631    -0.25500
C567        C  0.69457138  0.68639208  0.64777321    -0.14800
C568        C  0.72590679  0.67771590  0.59769192     0.37600
N569        N  0.78233359  0.66573550  0.59991110    -0.89000
H570        H  0.72642356  0.67451353  0.50711848     0.18700
H571        H  0.61601948  0.71317726  0.67849837     0.18700
N572        N  0.56822338  0.74557517  0.58792461    -0.88100
H573        H  0.80316798  0.69900487  0.58053711     0.36000
H574        H  0.78954205  0.62677971  0.57668987     0.41100
H575        H  0.57548556  0.78667888  0.57250716     0.40800
H576        H  0.55159766  0.75229919  0.62827674     0.35600
C577        C  0.79832207  0.77095302  0.88099343    -0.26100
C578        C  0.78203600  0.81096698  0.84039216    -0.14200
C579        C  0.75935472  0.86427781  0.86261090     0.36500
C580        C  0.76582146  0.88000854  0.91986736    -0.25500
C581        C  0.79702825  0.84541325  0.95370911    -0.14800
C582        C  0.80177671  0.78682592  0.93796811     0.37600
N583        N  0.81850065  0.74494342  0.97724065    -0.89000
H584        H  0.80332932  0.72525815  0.87004701     0.18700
H585        H  0.75520192  0.92361973  0.93505052     0.18700
N586        N  0.72757058  0.90193892  0.83013571    -0.88100
H587        H  0.81938812  0.76396865  0.01819217     0.36000
H588        H  0.85793104  0.73254065  0.96677162     0.41100
H589        H  0.69701403  0.87826537  0.80909612     0.40800
H590        H  0.75258336  0.92263783  0.80212964     0.35600
C591        C  0.75291392  0.12864350  0.83688072    -0.26100
C592        C  0.78478555  0.16997117  0.80946712    -0.14200
C593        C  0.83086968  0.14918007  0.77895693     0.36500
C594        C  0.84378863  0.09033114  0.77855789    -0.25500
C595        C  0.81967151  0.05532293  0.81785724    -0.14800
C596        C  0.77076951  0.07205839  0.84233728     0.37600
N597        N  0.74222000  0.03340653  0.87755113    -0.89000
H598        H  0.71310616  0.13817997  0.85238938     0.18700
H599        H  0.88038176  0.07578276  0.75713431     0.18700
N600        N  0.86130271  0.18594609  0.74353241    -0.88100
H601        H  0.70312898  0.02801848  0.86165993     0.36000
H602        H  0.73939937  0.05318207  0.91809543     0.41100
H603        H  0.90163014  0.18492260  0.75620934     0.40800
H604        H  0.85915902  0.16869780  0.70197670     0.35600
C605        C  0.66845970  0.41233253  0.76483163    -0.26100
C606        C  0.67532845  0.36516481  0.72454591    -0.14200
C607        C  0.65609568  0.37176683  0.67033395     0.36500
C608        C  0.61627815  0.41343840  0.66274214    -0.25500
C609        C  0.61343167  0.46351294  0.69931855    -0.14800
C610        C  0.64014615  0.46264833  0.75123758     0.37600
N611        N  0.64051792  0.51320074  0.78879975    -0.89000
H612        H  0.68709644  0.41098382  0.80603163     0.18700
H613        H  0.59746625  0.41469703  0.62215549     0.18700
N614        N  0.68635169  0.35006486  0.62214291    -0.88100
H615        H  0.68065191  0.52584716  0.79547003     0.36000
H616        H  0.62440695  0.50156196  0.82748506     0.41100
H617        H  0.72210968  0.33080898  0.63448321     0.40800
H618        H  0.70145132  0.38663856  0.60280429     0.35600
C619        C  0.19335016  0.76747250  0.88267427    -0.26100
C620        C  0.20777641  0.80930724  0.84283177    -0.14200
C621        C  0.22382613  0.86503889  0.86590634     0.36500
C622        C  0.21318492  0.87975942  0.92276418    -0.25500
C623        C  0.18339436  0.84173862  0.95514652    -0.14800
C624        C  0.18428895  0.78316589  0.93918560     0.37600
N625        N  0.16870764  0.74068913  0.97832520    -0.89000
H626        H  0.19249355  0.72146494  0.87119828     0.18700
H627        H  0.21834024  0.92462928  0.93789074     0.18700
N628        N  0.25093464  0.90755825  0.83426479    -0.88100
H629        H  0.20011198  0.71075422  0.98040969     0.36000
H630        H  0.13476011  0.71849654  0.96224403     0.41100
H631        H  0.28381487  0.88879597  0.81278160     0.40800
H632        H  0.22330728  0.92487631  0.80693736     0.35600
C633        C  0.36934060  0.71958536  0.58277321    -0.26100
C634        C  0.33728838  0.69980462  0.53691744    -0.14200
C635        C  0.28501927  0.67873047  0.54808581     0.36500
C636        C  0.26807871  0.67403207  0.60426197    -0.25500
C637        C  0.30192166  0.69026307  0.65029111    -0.14800
C638        C  0.35448195  0.71090744  0.63803805     0.37600
N639        N  0.39091645  0.73089071  0.68151678    -0.89000
H640        H  0.40871435  0.73884118  0.57612545     0.18700
H641        H  0.22655125  0.66235689  0.61147222     0.18700
N642        N  0.24968906  0.66148889  0.50222483    -0.88100
H643        H  0.39875921  0.77510800  0.67704170     0.36000
H644        H  0.42717146  0.70826670  0.67599829     0.41100
H645        H  0.24199432  0.69831945  0.47956827     0.40800
H646        H  0.21254844  0.64718730  0.51743608     0.35600
C647        C  0.69310692  0.54789216  0.30947348    -0.26100
C648        C  0.63855952  0.53270856  0.29923238    -0.14200
C649        C  0.60216229  0.57786492  0.28882078     0.36500
C650        C  0.62128797  0.63567107  0.28811902    -0.25500
C651        C  0.67592762  0.64900314  0.29910259    -0.14800
C652        C  0.70679424  0.60583956  0.32220172     0.37600
N653        N  0.75047836  0.62137350  0.35991832    -0.89000
H654        H  0.72097573  0.51466150  0.32194732     0.18700
H655        H  0.59376378  0.66991982  0.27785073     0.18700
N656        N  0.54602918  0.56567238  0.28070615    -0.88100
H657        H  0.76809796  0.58404026  0.37508338     0.36000
H658        H  0.73411012  0.64444898  0.39489696     0.41100
H659        H  0.53486874  0.58064643  0.24148814     0.40800
H660        H  0.52478143  0.58963299  0.31189778     0.35600
C661        C  0.74700051  0.87511892  0.16387968    -0.26100
C662        C  0.78062117  0.83688960  0.19207561    -0.14200
C663        C  0.82663722  0.86094392  0.22051017     0.36500
C664        C  0.83782963  0.92012547  0.21789537    -0.25500
C665        C  0.81170029  0.95231035  0.17775649    -0.14800
C666        C  0.76310691  0.93143900  0.15432639     0.37600
N667        N  0.73184876  0.96448568  0.11650601    -0.89000
H668        H  0.70703085  0.86304691  0.15032530     0.18700
H669        H  0.87444765  0.93708507  0.23769718     0.18700
N670        N  0.85891243  0.82718013  0.25662628    -0.88100
H671        H  0.73185287  0.94204425  0.07708430     0.36000
H672        H  0.75057781  0.00418354  0.11046056     0.41100
H673        H  0.85730832  0.84621359  0.29754305     0.40800
H674        H  0.89887088  0.82898873  0.24258123     0.35600
C675        C  0.34646716  0.30248326  0.36154681    -0.26100
C676        C  0.29244629  0.32036101  0.35536136    -0.14200
C677        C  0.26127560  0.32875640  0.40627670     0.36500
C678        C  0.28515807  0.32263609  0.45882702    -0.25500
C679        C  0.33848998  0.30422487  0.46348523    -0.14800
C680        C  0.36641178  0.28678204  0.41356203     0.37600
N681        N  0.41497147  0.25292784  0.41609430    -0.89000
H682        H  0.37020327  0.28952029  0.32493003     0.18700
H683        H  0.26226911  0.33434103  0.49670562     0.18700
N684        N  0.20470280  0.34025122  0.40735054    -0.88100
H685        H  0.43027150  0.24284779  0.37569068     0.36000
H686        H  0.40461476  0.21342376  0.43336014     0.41100
H687        H  0.19777214  0.38110686  0.39238241     0.40800
H688        H  0.18363088  0.30729737  0.38471025     0.35600
C689        C  0.22109954  0.13820679  0.15008423    -0.26100
C690        C  0.20637147  0.19670498  0.16067444    -0.14200
C691        C  0.19529721  0.23037517  0.11281490     0.36500
C692        C  0.19111092  0.20325904  0.05923026    -0.25500
C693        C  0.19014585  0.14319292  0.05412674    -0.14800
C694        C  0.21538482  0.11187004  0.09605175     0.37600
N695        N  0.22637664  0.05100543  0.08719216    -0.89000
H696        H  0.23809301  0.11308070  0.18288993     0.18700
H697        H  0.17744480  0.22835373  0.02448426     0.18700
N698        N  0.19101606  0.29239266  0.11743310    -0.88100
H699        H  0.26782079  0.04540225  0.09267080     0.36000
H700        H  0.21791153  0.03759466  0.04535883     0.41100
H701        H  0.15324109  0.30376187  0.10197501     0.40800
H702        H  0.21988333  0.30985173  0.09097505     0.35600
loop_ 
_geom_bond_atom_site_label_1 
_geom_bond_atom_site_label_2 
_geom_bond_distance 
_geom_bond_site_symmetry_2 
_ccdc_geom_bond_type 
C1            C3   1.552       .  S
C1            C5   1.550       .  S
C1            C4   1.549       .  S
C1          C676   1.523       .  S
C2            C6   1.541       .  S
C2            C8   1.562       .  S
C2            C7   1.568       .  S
C2          C690   1.514       .  S
C3           C11   1.402       .  A
C3            C6   1.376       .  A
C4           C15   1.374       .  A
C4            C7   1.379       .  A
C5           C19   1.391       .  A
C5            C8   1.393       .  A
C6            C9   1.378       .  A
C7           C13   1.421       .  A
C8           C16   1.394       .  A
C9           N10   1.350       .  A
C9           H22   1.082       .  S
N10          C11   1.370       .  A
N10         C286   1.457       .  S
C11          H12   1.082       .  S
C13          N14   1.380       .  A
C13          H23   1.082       .  S
N14          C15   1.344       .  A
N14         C102   1.473       .  S
C15          H21   1.074       .  S
C16          N17   1.362       .  A
C16          H18   1.082       .  S
N17          C19   1.362       .  A
N17          C44   1.462       .  S
C19          H20   1.080       .  S
N24          C29   1.357       .  A
N24          C28   1.358   1_655  A
N24          H56   1.039       .  S
N25          C32   1.362       .  A
N25          C33   1.358       .  A
N26          C31   1.369       .  A
N26          C30   1.366   1_655  A
N26          H57   1.041       .  S
N27          C34   1.360       .  A
N27          C35   1.359       .  A
C28          C36   1.386       .  A
C28          C44   1.422       .  A
C29          C45   1.423       .  A
C29          C37   1.387       .  A
C30          C38   1.389       .  A
C30          C47   1.446       .  A
C31          C46   1.445       .  A
C31          C39   1.387       .  A
C32          C44   1.422       .  A
C32          C40   1.382       .  A
C33          C47   1.429       .  A
C33          C41   1.388       .  A
C34          C42   1.382       .  A
C34          C45   1.421       .  A
C35          C43   1.388       .  A
C35          C46   1.430       .  A
C36          C37   1.383   1_455  A
C36          H48   1.082       .  S
C37          H49   1.082       .  S
C38          C39   1.394   1_455  A
C38          H50   1.082       .  S
C39          H51   1.081       .  S
C40          C41   1.375       .  A
C40          H52   1.082       .  S
C41          H53   1.081       .  S
C42          C43   1.376       .  A
C42          H54   1.082       .  S
C43          H55   1.082       .  S
C45         N329   1.456       .  S
C46          N67   1.481       .  S
C47         N375   1.474       .  S
C58          C60   1.552       .  S
C58          C62   1.557       .  S
C58          C61   1.537       .  S
C58         C662   1.503       .  S
C59          C63   1.583       .  S
C59          C65   1.568       .  S
C59          C64   1.568       .  S
C59         C651   1.528       .  S
C60          C68   1.410       .  A
C60          C63   1.385       .  A
C61          C72   1.380       .  A
C61          C64   1.373       .  A
C62          C76   1.401       .  A
C62          C65   1.387       .  A
C63          C66   1.399       .  A
C64          C70   1.420       .  A
C65          C73   1.402       .  A
C66          N67   1.364       .  A
C66          H79   1.076       .  S
N67          C68   1.368       .  A
C68          H69   1.082       .  S
C70          N71   1.385       .  A
C70          H80   1.082       .  S
N71          C72   1.347       .  A
N71         C135   1.479       .  S
C72          H78   1.079       .  S
C73          N74   1.359       .  A
C73          H75   1.079       .  S
N74          C76   1.362       .  A
N74         C251   1.466       .  S
C76          H77   1.081       .  S
N81          C86   1.360   1_565  A
N81          C85   1.361       .  A
N81         H113   1.041       .  S
N82          C89   1.360       .  A
N82          C90   1.358       .  A
N83          C88   1.364       .  A
N83          C87   1.363   1_545  A
N83         H114   1.041       .  S
N84          C91   1.362       .  A
N84          C92   1.364       .  A
C85          C93   1.391       .  A
C85         C101   1.438       .  A
C86         C102   1.424       .  A
C86          C94   1.383       .  A
C87          C95   1.384       .  A
C87         C104   1.430       .  A
C88         C103   1.444       .  A
C88          C96   1.391       .  A
C89         C101   1.419       .  A
C89          C97   1.380       .  A
C90         C104   1.434       .  A
C90          C98   1.390       .  A
C91          C99   1.391       .  A
C91         C102   1.443       .  A
C92         C100   1.381       .  A
C92         C103   1.427       .  A
C93          C94   1.384   1_565  A
C93         H105   1.082       .  S
C94         H106   1.082       .  S
C95          C96   1.387   1_565  A
C95         H107   1.082       .  S
C96         H108   1.082       .  S
C97          C98   1.379       .  A
C97         H109   1.081       .  S
C98         H110   1.082       .  S
C99         C100   1.381       .  A
C99         H111   1.082       .  S
C100        H112   1.082       .  S
C101        N379   1.469       .  S
C103        N356   1.478       .  S
C104        N162   1.469       .  S
N115        C120   1.365       .  A
N115        C119   1.366   1_545  A
N115        H147   1.041       .  S
N116        C123   1.363       .  A
N116        C124   1.361       .  A
N117        C122   1.365       .  A
N117        C121   1.365   1_545  A
N117        H148   1.041       .  S
N118        C125   1.365       .  A
N118        C126   1.367       .  A
C119        C127   1.391       .  A
C119        C135   1.448       .  A
C120        C136   1.432       .  A
C120        C128   1.384       .  A
C121        C129   1.383       .  A
C121        C138   1.431       .  A
C122        C137   1.444       .  A
C122        C130   1.391       .  A
C123        C135   1.426       .  A
C123        C131   1.383       .  A
C124        C138   1.438       .  A
C124        C132   1.389       .  A
C125        C133   1.391       .  A
C125        C136   1.448       .  A
C126        C134   1.382       .  A
C126        C137   1.433       .  A
C127        C128   1.386   1_565  A
C127        H139   1.082       .  S
C128        H140   1.082       .  S
C129        C130   1.383   1_565  A
C129        H141   1.082       .  S
C130        H142   1.082       .  S
C131        C132   1.379       .  A
C131        H143   1.082       .  S
C132        H144   1.082       .  S
C133        C134   1.382       .  A
C133        H145   1.081       .  S
C134        H146   1.082       .  S
C136        N336   1.482       .  S
C137        N222   1.482       .  S
C138        N310   1.476       .  S
C149        C151   1.565       .  S
C149        C153   1.543       .  S
C149        C152   1.569       .  S
C149        C620   1.521       .  S
C150        C154   1.557       .  S
C150        C156   1.540       .  S
C150        C155   1.552       .  S
C150        C637   1.512       .  S
C151        C159   1.395       .  A
C151        C154   1.389       .  A
C152        C163   1.420       .  A
C152        C155   1.385       .  A
C153        C167   1.379       .  A
C153        C156   1.373       .  A
C154        C157   1.399       .  A
C155        C161   1.377       .  A
C156        C164   1.397       .  A
C157        N158   1.368       .  A
C157        H170   1.082       .  S
N158        C159   1.362       .  A
N158        C193   1.467       .  S
C159        H160   1.082       .  S
C161        N162   1.346       .  A
C161        H171   1.076       .  S
N162        C163   1.373       .  A
C163        H169   1.077       .  S
C164        N165   1.366       .  A
C164        H166   1.082       .  S
N165        C167   1.352       .  A
N165        C249   1.455       .  S
C167        H168   1.082       .  S
N172        C177   1.364       .  A
N172        C176   1.360       .  A
N172        H204   1.043       .  S
N173        C180   1.369   1_655  A
N173        C181   1.368       .  A
N174        C179   1.364       .  A
N174        C178   1.363       .  A
N174        H205   1.042       .  S
N175        C182   1.361   1_655  A
N175        C183   1.360       .  A
C176        C184   1.382       .  A
C176        C192   1.429       .  A
C177        C193   1.424       .  A
C177        C185   1.383       .  A
C178        C186   1.389       .  A
C178        C195   1.437       .  A
C179        C194   1.428       .  A
C179        C187   1.383       .  A
C180        C192   1.446       .  A
C180        C188   1.387       .  A
C181        C195   1.447       .  A
C181        C189   1.387       .  A
C182        C190   1.385       .  A
C182        C193   1.427       .  A
C183        C191   1.386       .  A
C183        C194   1.428       .  A
C184        C185   1.380       .  A
C184        H196   1.077       .  S
C185        H197   1.083       .  S
C186        C187   1.379       .  A
C186        H198   1.082       .  S
C187        H199   1.083       .  S
C188        C189   1.390   1_455  A
C188        H200   1.081       .  S
C189        H201   1.081       .  S
C190        C191   1.382   1_455  A
C190        H202   1.082       .  S
C191        H203   1.082       .  S
C192        N359   1.486       .  S
C194        N306   1.467       .  S
C195        N215   1.485       .  S
C206        C208   1.552       .  S
C206        C210   1.590       .  S
C206        C209   1.544       .  S
C206        C606   1.521       .  S
C207        C211   1.563       .  S
C207        C213   1.545       .  S
C207        C212   1.562       .  S
C207        C592   1.511       .  S
C208        C216   1.387       .  A
C208        C211   1.381       .  A
C209        C220   1.389       .  A
C209        C212   1.380       .  A
C210        C224   1.431       .  A
C210        C213   1.381       .  A
C211        C214   1.411       .  A
C212        C218   1.405       .  A
C213        C221   1.382       .  A
C214        N215   1.375       .  A
C214        H227   1.082       .  S
N215        C216   1.369       .  A
C216        H217   1.082       .  S
C218        N219   1.367       .  A
C218        H228   1.082       .  S
N219        C220   1.356       .  A
N219        C284   1.462       .  S
C220        H226   1.082       .  S
C221        N222   1.347       .  A
C221        H223   1.079       .  S
N222        C224   1.381       .  A
C224        H225   1.080       .  S
N229        C234   1.360       .  A
N229        C233   1.358       .  A
N229        H261   1.041       .  S
N230        C237   1.356       .  A
N230        C238   1.359   1_556  A
N231        C236   1.363       .  A
N231        C235   1.364       .  A
N231        H262   1.039       .  S
N232        C239   1.361       .  A
N232        C240   1.362   1_556  A
C233        C241   1.385       .  A
C233        C249   1.422       .  A
C234        C250   1.422       .  A
C234        C242   1.386       .  A
C235        C243   1.386       .  A
C235        C252   1.434       .  A
C236        C251   1.433       .  A
C236        C244   1.386       .  A
C237        C249   1.424       .  A
C237        C245   1.387       .  A
C238        C252   1.420       .  A
C238        C246   1.384       .  A
C239        C247   1.387       .  A
C239        C250   1.432       .  A
C240        C248   1.384       .  A
C240        C251   1.427       .  A
C241        C242   1.375       .  A
C241        H253   1.079       .  S
C242        H254   1.081       .  S
C243        C244   1.381       .  A
C243        H255   1.082       .  S
C244        H256   1.082       .  S
C245        C246   1.376   1_556  A
C245        H257   1.082       .  S
C246        H258   1.082       .  S
C247        C248   1.378   1_556  A
C247        H259   1.082       .  S
C248        H260   1.082       .  S
C250        N313   1.463       .  S
C252        N382   1.465       .  S
N263        C268   1.361       .  A
N263        C267   1.360       .  A
N263        H295   1.040       .  S
N264        C271   1.361   1_554  A
N264        C272   1.358       .  A
N265        C270   1.356       .  A
N265        C269   1.356       .  A
N265        H296   1.042       .  S
N266        C273   1.359   1_554  A
N266        C274   1.357       .  A
C267        C275   1.387       .  A
C267        C283   1.430       .  A
C268        C284   1.430       .  A
C268        C276   1.386       .  A
C269        C277   1.386       .  A
C269        C286   1.417       .  A
C270        C285   1.418       .  A
C270        C278   1.386       .  A
C271        C283   1.424       .  A
C271        C279   1.384       .  A
C272        C286   1.427       .  A
C272        C280   1.384       .  A
C273        C281   1.384       .  A
C273        C284   1.421       .  A
C274        C282   1.386       .  A
C274        C285   1.424       .  A
C275        C276   1.384       .  A
C275        H287   1.082       .  S
C276        H288   1.082       .  S
C277        C278   1.379       .  A
C277        H289   1.082       .  S
C278        H290   1.082       .  S
C279        C280   1.380   1_556  A
C279        H291   1.082       .  S
C280        H292   1.080       .  S
C281        C282   1.376   1_556  A
C281        H293   1.082       .  S
C282        H294   1.082       .  S
C283        N352   1.464       .  S
C285        N333   1.453       .  S
C297        C299   1.555       .  S
C297        C301   1.551       .  S
C297        C300   1.555       .  S
C297        C567   1.514       .  S
C298        C302   1.566       .  S
C298        C304   1.546       .  S
C298        C303   1.568       .  S
C298        C578   1.516       .  S
C299        C307   1.397       .  A
C299        C302   1.388       .  A
C300        C311   1.382       .  A
C300        C303   1.382       .  A
C301        C315   1.405       .  A
C301        C304   1.371       .  A
C302        C305   1.398       .  A
C303        C309   1.420       .  A
C304        C312   1.383       .  A
C305        N306   1.363       .  A
C305        H318   1.082       .  S
N306        C307   1.366       .  A
C307        H308   1.082       .  S
C309        N310   1.376       .  A
C309        H319   1.080       .  S
N310        C311   1.350       .  A
C311        H317   1.076       .  S
C312        N313   1.350       .  A
C312        H314   1.082       .  S
N313        C315   1.372       .  A
C315        H316   1.082       .  S
C320        C322   1.557       .  S
C320        C324   1.576       .  S
C320        C323   1.539       .  S
C320        C539   1.511       .  S
C321        C325   1.546       .  S
C321        C327   1.553       .  S
C321        C326   1.547       .  S
C321        C553   1.505       .  S
C322        C330   1.391       .  A
C322        C325   1.386       .  A
C323        C334   1.377       .  A
C323        C326   1.371       .  A
C324        C338   1.424       .  A
C324        C327   1.382       .  A
C325        C328   1.392       .  A
C326        C332   1.401       .  A
C327        C335   1.380       .  A
C328        N329   1.363       .  A
C328        H341   1.082       .  S
N329        C330   1.360       .  A
C330        H331   1.082       .  S
C332        N333   1.367       .  A
C332        H342   1.082       .  S
N333        C334   1.350       .  A
C334        H340   1.082       .  S
C335        N336   1.349       .  A
C335        H337   1.075       .  S
N336        C338   1.382       .  A
C338        H339   1.081       .  S
C343        C345   1.555       .  S
C343        C347   1.560       .  S
C343        C346   1.541       .  S
C343        C522   1.509       .  S
C344        C348   1.547       .  S
C344        C350   1.571       .  S
C344        C349   1.584       .  S
C344        C508   1.524       .  S
C345        C353   1.405       .  A
C345        C348   1.376       .  A
C346        C357   1.377       .  A
C346        C349   1.383       .  A
C347        C361   1.406       .  A
C347        C350   1.385       .  A
C348        C351   1.389       .  A
C349        C355   1.428       .  A
C350        C358   1.397       .  A
C351        N352   1.356       .  A
C351        H364   1.083       .  S
N352        C353   1.369       .  A
C353        H354   1.082       .  S
C355        N356   1.385       .  A
C355        H365   1.081       .  S
N356        C357   1.344       .  A
C357        H363   1.081       .  S
C358        N359   1.374       .  A
C358        H360   1.082       .  S
N359        C361   1.370       .  A
C361        H362   1.082       .  S
C366        C368   1.564       .  S
C366        C370   1.544       .  S
C366        C369   1.569       .  S
C366        C494   1.519       .  S
C367        C371   1.557       .  S
C367        C373   1.559       .  S
C367        C372   1.542       .  S
C367        C480   1.516       .  S
C368        C376   1.391       .  A
C368        C371   1.380       .  A
C369        C380   1.420       .  A
C369        C372   1.383       .  A
C370        C384   1.384       .  A
C370        C373   1.382       .  A
C371        C374   1.403       .  A
C372        C378   1.373       .  A
C373        C381   1.406       .  A
C374        N375   1.366       .  A
C374        H387   1.082       .  S
N375        C376   1.368       .  A
C376        H377   1.082       .  S
C378        N379   1.344       .  A
C378        H388   1.081       .  S
N379        C380   1.380       .  A
C380        H386   1.081       .  S
C381        N382   1.371       .  A
C381        H383   1.080       .  S
N382        C384   1.353       .  A
C384        H385   1.083       .  S
N389        N390   1.302       .  A
N389        N395   1.309   1_565  A
N389       Mn418   2.147   1_455  S
N390        C397   1.346       .  A
N391        N393   1.310   1_545  A
N391        N392   1.319       .  A
N391       Mn407   2.147       .  S
N392        C398   1.350   1_545  A
N393        N394   1.303       .  A
N393       Mn418   2.158       .  S
N394        C398   1.344       .  A
N395        N396   1.319       .  A
N395       Mn407   2.141   1_455  S
N396        C397   1.346   1_545  A
C397        C483   1.432       .  S
C398        C665   1.430       .  S
N399        N405   1.310       .  A
N399        N400   1.321   1_554  A
N399       Mn429   2.157   1_554  S
N400        C408   1.346   1_556  A
N401        N402   1.306       .  A
N401        N403   1.313       .  A
N401       Mn407   2.138   1_455  S
N402        C409   1.341       .  A
N403        N404   1.322   1_554  A
N403       Mn429   2.171   1_454  S
N404        C409   1.349   1_556  A
N405        N406   1.305       .  A
N405       Mn407   2.138       .  S
N406        C408   1.343       .  A
Mn407      Cl431   2.550       .  S
C408        C536   1.440       .  S
C409        C693   1.441       .  S
N410        N411   1.318   1_556  A
N410        N416   1.310       .  A
N410       Mn418   2.151   1_556  S
N411        C419   1.343   1_554  A
N412        N414   1.313       .  A
N412        N413   1.306       .  A
N412       Mn430   2.150   1_455  S
N413        C420   1.344       .  A
N414        N415   1.321   1_556  A
N414       Mn418   2.166   1_456  S
N415        C420   1.348   1_554  A
N416        N417   1.308       .  A
N416       Mn430   2.145       .  S
N417        C419   1.345       .  A
Mn418      Cl431   2.477   1_565  S
C419        C581   1.437       .  S
C420        C623   1.441       .  S
N421        N422   1.300       .  A
N421        N427   1.309   1_545  A
N421       Mn429   2.140   1_455  S
N422        C432   1.343       .  A
N423        N424   1.318   1_545  A
N423        N425   1.311       .  A
N423       Mn430   2.143   1_545  S
N424        C433   1.346   1_565  A
N425        N426   1.304       .  A
N425       Mn429   2.160       .  S
N426        C433   1.346       .  A
N427        N428   1.320       .  A
N427       Mn430   2.154   1_455  S
N428        C432   1.351   1_565  A
Mn429      Cl431   2.478   1_556  S
Mn430      Cl431   2.548   1_566  S
C432        C525   1.433       .  S
C433        C595   1.427       .  S
N434        N435   1.309       .  A
N434        N440   1.309       .  A
N434       Mn463   2.137       .  S
N435        C442   1.351       .  A
N436        N438   1.299       .  A
N436        N437   1.331       .  A
N436       Mn452   2.230       .  S
N437        C443   1.373       .  A
N438        N439   1.292       .  A
N438       Mn463   2.084       .  S
N439        C443   1.336       .  A
N440        N441   1.310       .  A
N440       Mn452   2.190       .  S
N441        C442   1.347       .  A
C442        C550   1.472       .  S
C443        C648   1.476       .  S
N444        N450   1.308       .  A
N444        N445   1.302       .  A
N444       Mn474   2.126       .  S
N445        C453   1.338       .  A
N446        N447   1.309       .  A
N446        N448   1.307       .  A
N446       Mn452   2.188       .  S
N447        C454   1.350       .  A
N448        N449   1.314       .  A
N448       Mn474   2.143       .  S
N449        C454   1.357       .  A
N450        N451   1.324       .  A
N450       Mn452   2.199       .  S
N451        C453   1.359       .  A
Mn452      Cl476   2.404       .  S
C453        C497   1.449       .  S
C454        C679   1.482       .  S
N455        N456   1.314       .  A
N455        N461   1.309       .  A
N455       Mn463   2.151       .  S
N456        C464   1.356       .  A
N457        N459   1.303       .  A
N457        N458   1.330       .  A
N457       Mn475   2.244       .  S
N458        C465   1.369       .  A
N459        N460   1.305       .  A
N459       Mn463   2.131       .  S
N460        C465   1.342       .  A
N461        N462   1.310       .  A
N461       Mn475   2.199       .  S
N462        C464   1.348       .  A
Mn463      Cl476   2.579       .  S
C464        C564   1.485       .  S
C465        C609   1.481       .  S
N466        N467   1.304       .  A
N466        N472   1.308       .  A
N466       Mn474   2.133       .  S
N467        C477   1.341       .  A
N468        N469   1.311       .  A
N468        N470   1.308       .  A
N468       Mn475   2.206       .  S
N469        C478   1.354       .  A
N470        N471   1.314       .  A
N470       Mn474   2.140       .  S
N471        C478   1.353       .  A
N472        N473   1.324       .  A
N472       Mn475   2.204       .  S
N473        C477   1.359       .  A
Mn474      Cl476   2.583       .  S
Mn475      Cl476   2.396       .  S
C477        C511   1.456       .  S
C478        C634   1.486       .  S
C479        C480   1.420       .  A
C479        C484   1.386       .  A
C479        H486   1.078       .  S
C480        C481   1.435       .  A
C481        C482   1.393       .  A
C481        N488   1.430       .  S
C482        C483   1.386       .  A
C482        H487   1.082       .  S
C483        C484   1.392       .  A
C484        N485   1.434       .  S
N485        H489   1.045       .  S
N485        H490   1.046       .  S
N488        H491   1.038       .  S
N488        H492   1.044       .  S
C493        C494   1.417       .  A
C493        C498   1.388       .  A
C493        H500   1.079       .  S
C494        C495   1.411       .  A
C495        C496   1.407       .  A
C495        N502   1.430       .  S
C496        C497   1.410       .  A
C496        H501   1.083       .  S
C497        C498   1.390       .  A
C498        N499   1.433       .  S
N499        H503   1.045       .  S
N499        H504   1.046       .  S
N502        H505   1.044       .  S
N502        H506   1.046       .  S
C507        C508   1.402       .  A
C507        C512   1.408       .  A
C507        H514   1.080       .  S
C508        C509   1.429       .  A
C509        C510   1.394       .  A
C509        N516   1.431       .  S
C510        C511   1.382       .  A
C510        H515   1.085       .  S
C511        C512   1.414       .  A
C512        N513   1.436       .  S
N513        H517   1.045       .  S
N513        H518   1.045       .  S
N516        H519   1.046       .  S
N516        H520   1.042       .  S
C521        C522   1.413       .  A
C521        C526   1.392       .  A
C521        H528   1.080       .  S
C522        C523   1.428       .  A
C523        C524   1.395       .  A
C523        N530   1.430       .  S
C524        C525   1.387       .  A
C524        H529   1.084       .  S
C525        C526   1.400       .  A
C526        N527   1.433       .  S
N527        H531   1.046       .  S
N527        H532   1.046       .  S
N530        H533   1.046       .  S
N530        H534   1.045       .  S
C535        C536   1.400       .  A
C535        C540   1.404       .  A
C535        H542   1.080       .  S
C536        C537   1.384       .  A
C537        C538   1.390       .  A
C537        N544   1.432       .  S
C538        C539   1.425       .  A
C538        H543   1.081       .  S
C539        C540   1.412       .  A
C540        N541   1.428       .  S
N541        H545   1.043       .  S
N541        H546   1.046       .  S
N544        H547   1.046       .  S
N544        H548   1.046       .  S
C549        C550   1.401       .  A
C549        C554   1.397       .  A
C549        H556   1.085       .  S
C550        C551   1.413       .  A
C551        C552   1.382       .  A
C551        N558   1.436       .  S
C552        C553   1.405       .  A
C552        H557   1.077       .  S
C553        C554   1.424       .  A
C554        N555   1.430       .  S
N555        H559   1.045       .  S
N555        H560   1.046       .  S
N558        H561   1.046       .  S
N558        H562   1.046       .  S
C563        C564   1.400       .  A
C563        C568   1.398       .  A
C563        H570   1.084       .  S
C564        C565   1.420       .  A
C565        C566   1.392       .  A
C565        N572   1.441       .  S
C566        C567   1.407       .  A
C566        H571   1.078       .  S
C567        C568   1.424       .  A
C568        N569   1.429       .  S
N569        H573   1.046       .  S
N569        H574   1.046       .  S
N572        H575   1.046       .  S
N572        H576   1.046       .  S
C577        C578   1.425       .  A
C577        C582   1.385       .  A
C577        H584   1.079       .  S
C578        C579   1.430       .  A
C579        C580   1.397       .  A
C579        N586   1.429       .  S
C580        C581   1.396       .  A
C580        H585   1.084       .  S
C581        C582   1.388       .  A
C582        N583   1.436       .  S
N583        H587   1.046   1_556  S
N583        H588   1.046       .  S
N586        H589   1.045       .  S
N586        H590   1.038       .  S
C591        C592   1.415       .  A
C591        C596   1.391       .  A
C591        H598   1.072       .  S
C592        C593   1.423       .  A
C593        C594   1.394       .  A
C593        N600   1.432       .  S
C594        C595   1.393       .  A
C594        H599   1.085       .  S
C595        C596   1.391       .  A
C596        N597   1.432       .  S
N597        H601   1.045       .  S
N597        H602   1.046       .  S
N600        H603   1.046       .  S
N600        H604   1.046       .  S
C605        C606   1.422       .  A
C605        C610   1.409       .  A
C605        H612   1.084       .  S
C606        C607   1.388       .  A
C607        C608   1.398       .  A
C607        N614   1.436       .  S
C608        C609   1.411       .  A
C608        H613   1.072       .  S
C609        C610   1.400       .  A
C610        N611   1.431       .  S
N611        H615   1.046       .  S
N611        H616   1.045       .  S
N614        H617   1.042       .  S
N614        H618   1.045       .  S
C619        C620   1.425       .  A
C619        C624   1.389       .  A
C619        H626   1.081       .  S
C620        C621   1.426       .  A
C621        C622   1.399       .  A
C621        N628   1.426       .  S
C622        C623   1.399       .  A
C622        H627   1.084       .  S
C623        C624   1.384       .  A
C624        N625   1.431       .  S
N625        H629   1.046       .  S
N625        H630   1.046       .  S
N628        H631   1.044       .  S
N628        H632   1.038       .  S
C633        C634   1.405       .  A
C633        C638   1.383       .  A
C633        H640   1.084       .  S
C634        C635   1.410       .  A
C635        C636   1.404       .  A
C635        N642   1.438       .  S
C636        C637   1.413       .  A
C636        H641   1.078       .  S
C637        C638   1.419       .  A
C638        N639   1.430       .  S
N639        H643   1.046       .  S
N639        H644   1.046       .  S
N642        H645   1.044       .  S
N642        H646   1.045       .  S
C647        C648   1.414       .  A
C647        C652   1.394       .  A
C647        H654   1.086       .  S
C648        C649   1.412       .  A
C649        C650   1.412       .  A
C649        N656   1.430       .  S
C650        C651   1.410       .  A
C650        H655   1.083       .  S
C651        C652   1.392       .  A
C652        N653   1.439       .  S
N653        H657   1.046       .  S
N653        H658   1.045       .  S
N656        H659   1.046       .  S
N656        H660   1.044       .  S
C661        C662   1.409       .  A
C661        C666   1.384       .  A
C661        H668   1.074       .  S
C662        C663   1.423       .  A
C663        C664   1.394       .  A
C663        N670   1.433       .  S
C664        C665   1.397       .  A
C664        H669   1.085       .  S
C665        C666   1.401       .  A
C666        N667   1.435       .  S
N667        H671   1.046       .  S
N667        H672   1.039   1_565  S
N670        H673   1.046       .  S
N670        H674   1.046       .  S
C675        C676   1.413       .  A
C675        C680   1.394       .  A
C675        H682   1.078       .  S
C676        C677   1.437       .  A
C677        C678   1.394       .  A
C677        N684   1.429       .  S
C678        C679   1.397       .  A
C678        H683   1.085       .  S
C679        C680   1.412       .  A
C680        N681   1.441       .  S
N681        H685   1.045       .  S
N681        H686   1.046       .  S
N684        H687   1.037       .  S
N684        H688   1.047       .  S
C689        C690   1.408       .  A
C689        C694   1.398       .  A
C689        H696   1.079       .  S
C690        C691   1.433       .  A
C691        C692   1.392       .  A
C691        N698   1.432       .  S
C692        C693   1.383       .  A
C692        H697   1.085       .  S
C693        C694   1.406       .  A
C694        N695   1.435       .  S
N695        H699   1.046       .  S
N695        H700   1.046       .  S
N698        H701   1.046       .  S
N698        H702   1.042       .  S
