geometry optimzed in LAMMPS
_audit_creation_date              2020-12-01 
_audit_creation_method            'lammps2cif' 
_symmetry_space_group_name_H-M    'P1' 
_symmetry_Int_Tables_number       1 
_symmetry_cell_setting            triclinic 
loop_ 
_symmetry_equiv_pos_as_xyz 
  x,y,z 
_cell_length_a                    24.96652904 
_cell_length_b                    25.89045056121863 
_cell_length_c                    25.956462500337103 
_cell_angle_alpha                 90.19191305324064 
_cell_angle_beta                  90.26000406982807 
_cell_angle_gamma                 90.83739648727128 
loop_ 
_atom_site_label 
_atom_site_type_symbol 
_atom_site_fract_x 
_atom_site_fract_y 
_atom_site_fract_z 
_atom_site_charge 
C1          C  0.70581787  0.33705990  0.28364969     0.82200
N2          N  0.73140747  0.31819936  0.32656770    -0.76100
C3          C  0.71048456  0.27622755  0.35235104     0.84700
N4          N  0.66447953  0.25358449  0.33484269    -0.76000
C5          C  0.63902629  0.27192099  0.29256010     0.84800
N6          N  0.65977725  0.31342487  0.26708759    -0.77700
C7          C  0.71249648  0.75800109  0.26984451     0.82200
N8          N  0.73942722  0.77756377  0.31188370    -0.76100
C9          C  0.72389062  0.82299131  0.33418719     0.84700
N10         N  0.68115837  0.84845991  0.31399284    -0.76000
C11         C  0.65428858  0.82915357  0.27209379     0.84800
N12         N  0.67020069  0.78411787  0.25037345    -0.77700
C13         C  0.22966386  0.82455084  0.27419175     0.82200
N14         N  0.21574772  0.85161032  0.31728830    -0.76100
C15         C  0.17300341  0.83639058  0.34653358     0.84700
N16         N  0.14391354  0.79335588  0.33201519    -0.76000
C17         C  0.15743471  0.76586035  0.28887857     0.84800
N18         N  0.20031463  0.78185387  0.26034004    -0.77700
C19         C  0.24099201  0.83432597  0.83098275     0.82200
N20         N  0.21719306  0.79410203  0.85614174    -0.76100
C21         C  0.17078142  0.77225190  0.83809215     0.84700
N22         N  0.14798874  0.79154589  0.79393923    -0.76000
C23         C  0.17180109  0.83221221  0.76838646     0.84800
N24         N  0.21813983  0.85314016  0.78740294    -0.77700
C25         C  0.71193871  0.27270743  0.76392722     0.82200
N26         N  0.73792002  0.31734617  0.77896799    -0.76100
C27         C  0.72123795  0.34414999  0.82145752     0.84700
N28         N  0.67854075  0.32587355  0.84872390    -0.76000
C29         C  0.65239799  0.28161750  0.83426290     0.84800
N30         N  0.66927247  0.25519394  0.79189946    -0.77700
C31         C  0.72559839  0.82694498  0.75759603     0.82200
N32         N  0.68572850  0.85532045  0.77918738    -0.76100
C33         C  0.66266685  0.84062456  0.82458679     0.84700
N34         N  0.68004086  0.79679577  0.84847282    -0.76000
C35         C  0.71995256  0.76790058  0.82739858     0.84800
N36         N  0.74247043  0.78336924  0.78198667    -0.77700
C37         C  0.22656610  0.28834070  0.84537505     0.82200
N38         N  0.20653529  0.33270344  0.86532944    -0.76100
C39         C  0.16297142  0.35537209  0.84383694     0.84700
N40         N  0.13903067  0.33297640  0.80150807    -0.76000
C41         C  0.15860958  0.28826812  0.78085532     0.84800
N42         N  0.20245367  0.26628066  0.80314435    -0.77700
C43         C  0.22043116  0.27784502  0.28703512     0.82200
N44         N  0.20040058  0.25987397  0.33245448    -0.76100
C45         C  0.15937825  0.28425788  0.35647970     0.84700
N46         N  0.13804415  0.32731916  0.33443352    -0.76000
C47         C  0.15753273  0.34610901  0.28887132     0.84800
N48         N  0.19881740  0.32104083  0.26539096    -0.77700
O49         O  0.01587134  0.13468620  0.56393341    -0.53400
O50         O  0.81779881  0.22562593  0.50128588    -0.61300
C51         C  0.77796950  0.20373236  0.47918838     0.99500
O52         O  0.19206494  0.02870319  0.57182708    -0.66500
O53         O  0.08826103  0.05950257  0.62106429    -0.64400
C54         C  0.67974537  0.02954294  0.54660861     0.91600
O55         O  0.88651723  0.28951331  0.56878836    -0.66600
C56         C  0.77251225  0.19591755  0.63651388     0.99200
C57         C  0.93079904  0.31435079  0.56976495     0.92100
Ti58       Ti  0.87294870  0.20863576  0.56223899     1.51200
Ti59       Ti  0.01792847  0.89862495  0.55103430     1.51300
O60         O  0.93401630  0.19719598  0.61962853    -0.60500
O61         O  0.80056153  0.04561687  0.49464716    -0.64500
C62         C  0.11042985  0.90274394  0.63699751     0.99600
O63         O  0.87510124  0.96801665  0.54958465    -0.53500
C64         C  0.79835966  0.88774824  0.46378201     0.99300
Ti65       Ti  0.77879521  0.10289314  0.55250508     1.51000
Ti66       Ti  0.99675012  0.21539462  0.56574275     1.53000
Ti67       Ti  0.10036869  0.12394240  0.56913268     1.49300
O68         O  0.77480898  0.92383475  0.60567303    -0.60200
O69         O  0.70946012  0.99067347  0.54475166    -0.66500
O70         O  0.97602320  0.29320072  0.56698993    -0.66600
O71         O  0.86133170  0.12660541  0.55674304    -0.53400
O72         O  0.09597009  0.06483766  0.51003562    -0.64400
O73         O  0.07634820  0.88982664  0.49239782    -0.61300
O74         O  0.93685501  0.20158439  0.50753417    -0.60500
O75         O  0.83725232  0.86276088  0.60382235    -0.61800
O76         O  0.00787198  0.81965632  0.54314758    -0.66600
O77         O  0.81440337  0.21899835  0.62066863    -0.61300
O78         O  0.02840144  0.98040206  0.55724470    -0.53400
C79         C  0.96708603  0.79074250  0.53760222     0.92100
O80         O  0.79720827  0.04073024  0.60554288    -0.64400
O81         O  0.05004983  0.23647172  0.62867420    -0.61900
O82         O  0.07188178  0.88075965  0.61306552    -0.61300
C83         C  0.09091630  0.21731316  0.65037722     0.99400
C84         C  0.79540983  0.88272619  0.62323657     0.99400
C85         C  0.21036080  0.07472834  0.57564373     0.91400
O86         O  0.12947558  0.94669568  0.62344601    -0.60600
O87         O  0.75894912  0.15980264  0.49348019    -0.60600
C88         C  0.11886741  0.91220953  0.47751467     0.99100
Ti89       Ti  0.11135583  0.00287354  0.56368069     1.51000
O90         O  0.84083118  0.86836632  0.48231490    -0.61900
O91         O  0.75419409  0.15418084  0.61564271    -0.60600
O92         O  0.11945138  0.18114195  0.51065747    -0.60200
O93         O  0.91923426  0.80748115  0.53972112    -0.66800
O94         O  0.05262462  0.23712475  0.50668234    -0.61800
O95         O  0.18174191  0.11436958  0.57503692    -0.66300
O96         O  0.77681013  0.92757348  0.48332996    -0.60100
Ti97       Ti  0.89450269  0.88668826  0.54555612     1.53200
O98         O  0.11240964  0.17637127  0.63357275    -0.59300
O99         O  0.95720222  0.90879317  0.49297934    -0.60500
O100        O  0.13810232  0.95252653  0.50028508    -0.60600
C101        C  0.09669962  0.21984397  0.49021417     0.99500
O102        O  0.69739302  0.07601925  0.54853590    -0.66600
Ti103      Ti  0.79093203  0.98079606  0.54694224     1.49500
O104        O  0.95319519  0.90121291  0.60490836    -0.60500
O105        O  0.43976339  0.97580827  0.12770734    -0.53400
O106        O  0.48477715  0.16004531  0.24721174    -0.61300
C107        C  0.50839988  0.19913027  0.22795935     0.99500
O108        O  0.46570494  0.83155913  0.99687508    -0.66500
O109        O  0.39311375  0.91023495  0.04320384    -0.64400
C110        C  0.44875413  0.31179143  0.07968103     0.91600
O111        O  0.42192802  0.07979062  0.29811227    -0.66600
C112        C  0.34688938  0.20000168  0.21918645     0.99200
C113        C  0.42396682  0.03403282  0.31578082     0.92100
Ti114      Ti  0.42630163  0.10436918  0.22008534     1.51200
Ti115      Ti  0.44675972  0.00814680  0.89446333     1.51300
O116        O  0.37292549  0.04182175  0.19827205    -0.60500
O117        O  0.49554736  0.19484591  0.07015707    -0.64500
C118        C  0.37432404  0.90737960  0.89198255     0.99600
O119        O  0.43899004  0.13650742  0.98503310    -0.53500
C120        C  0.52260223  0.22126968  0.91302392     0.99300
Ti121      Ti  0.43497219  0.20587516  0.12860922     1.51000
Ti122      Ti  0.43486216  0.98534874  0.20902250     1.53000
Ti123      Ti  0.44755474  0.89627211  0.10593083     1.49300
O124        O  0.38251907  0.24061068  0.95222125    -0.60200
O125        O  0.44888614  0.29328474  0.03422275    -0.66500
O126        O  0.42949077  0.99447753  0.28791748    -0.66600
O127        O  0.43012017  0.12457937  0.13976405    -0.53400
O128        O  0.50855564  0.92198056  0.05208623    -0.64400
O129        O  0.51199042  0.95720523  0.87183796    -0.61300
O130        O  0.48910112  0.05007949  0.20570256    -0.60500
O131        O  0.37411866  0.17876970  0.89192883    -0.61800
O132        O  0.44288643  0.03002801  0.81648728    -0.66600
O133        O  0.36056994  0.15586954  0.23643828    -0.61300
O134        O  0.44905511  0.98990393  0.97515734    -0.53400
C135        C  0.44073325  0.07469400  0.79658236     0.92100
O136        O  0.37987786  0.20037696  0.06444195    -0.64400
O137        O  0.37576661  0.92600562  0.21876832    -0.61900
O138        O  0.38627557  0.95199871  0.87538977    -0.61300
C139        C  0.36003371  0.88514275  0.19600004     0.99400
C140        C  0.35930001  0.22078584  0.91257852     0.99400
C141        C  0.46427174  0.80239641  0.03544689     0.91400
O142        O  0.39881155  0.88657627  0.92922879    -0.60600
O143        O  0.49578101  0.21790669  0.18484268    -0.60600
C144        C  0.53696841  0.91982879  0.89272873     0.99100
Ti145      Ti  0.45650467  0.90908491  0.98687363     1.51000
O146        O  0.49829670  0.18588770  0.88803702    -0.61900
O147        O  0.37103580  0.22218989  0.18194240    -0.60600
O148        O  0.50782552  0.87879590  0.16226055    -0.60200
O149        O  0.43914291  0.11624984  0.82255746    -0.66800
O150        O  0.50047235  0.93555468  0.22644096    -0.61800
O151        O  0.45660852  0.81844538  0.08111956    -0.66300
O152        O  0.50891255  0.23496794  0.95825500    -0.60100
Ti153      Ti  0.43949882  0.12723291  0.90299203     1.53200
O154        O  0.38206789  0.86846701  0.15483908    -0.60200
O155        O  0.50184362  0.07084501  0.90986427    -0.60500
O156        O  0.52344056  0.90142965  0.93608079    -0.60600
C157        C  0.52319879  0.89757599  0.20517092     0.99500
O158        O  0.44092580  0.28548185  0.11969960    -0.66600
Ti159      Ti  0.44225095  0.21593412  0.00832948     1.49500
O160        O  0.38528305  0.06295536  0.91183585    -0.60500
O161        O  0.85856844  0.55561604  0.97807441    -0.53400
O162        O  0.74396040  0.47890550  0.15826395    -0.61300
C163        C  0.76488840  0.46330944  0.20052815     0.99500
O164        O  0.99572627  0.57098305  0.83550978    -0.66500
O165        O  0.94148813  0.61909683  0.92381374    -0.64400
C166        C  0.91333337  0.54503576  0.31122147     0.91600
O167        O  0.67902408  0.53612644  0.07896647    -0.66600
C168        C  0.76138473  0.62278448  0.19993476     0.99200
C169        C  0.66209214  0.53436054  0.03216546     0.92100
Ti170      Ti  0.76161581  0.54262134  0.10511250     1.51200
Ti171      Ti  0.10501606  0.56439782  0.01074048     1.51300
O172        O  0.77638031  0.60222331  0.04881060    -0.60500
O173        O  0.92617843  0.49337237  0.19531337    -0.64500
C174        C  0.10398543  0.64738672  0.91828740     0.99600
O175        O  0.01190061  0.55494868  0.13782941    -0.53500
C176        C  0.08888819  0.47600008  0.22103349     0.99300
Ti177      Ti  0.86109872  0.54725077  0.20521741     1.51000
Ti178      Ti  0.77387469  0.54882415  0.98537739     1.53000
Ti179      Ti  0.88243556  0.56200136  0.89919592     1.49300
O180        O  0.03937210  0.61358406  0.24261999    -0.60200
O181        O  0.96019355  0.54569163  0.29241840    -0.66500
O182        O  0.69231252  0.54077524  0.99374566    -0.66600
O183        O  0.84628955  0.54741254  0.12423650    -0.53400
O184        O  0.94460686  0.50744665  0.91638943    -0.64400
O185        O  0.12591068  0.50493648  0.95540944    -0.61300
O186        O  0.78352026  0.49029498  0.04394656    -0.60500
O187        O  0.10774957  0.61970301  0.18774696    -0.61800
O188        O  0.18614739  0.56601534  0.03329166    -0.66600
O189        O  0.73842164  0.60174084  0.16073093    -0.61300
O190        O  0.02047348  0.56208661  0.99337947    -0.53400
C191        C  0.20700316  0.56803266  0.07807343     0.92100
O192        O  0.92410507  0.60489276  0.19790654    -0.64400
O193        O  0.75664526  0.61197873  0.93287556    -0.61900
O194        O  0.12575385  0.62774402  0.95821124    -0.61300
C195        C  0.78092807  0.63577181  0.89664281     0.99400
C196        C  0.08267240  0.63532251  0.22719437     0.99400
C197        C  0.95591426  0.57268020  0.80603486     0.91400
O198        O  0.06072434  0.62935533  0.89956216    -0.60600
O199        O  0.80575200  0.48521679  0.22051620    -0.60600
C200        C  0.10476730  0.48781659  0.91377607     0.99100
Ti201      Ti  0.00642403  0.56612269  0.91273158     1.51000
O202        O  0.11340820  0.49828130  0.18402794    -0.61900
O203        O  0.80462628  0.60635400  0.21913263    -0.60600
O204        O  0.83087196  0.49989155  0.87061968    -0.60200
O205        O  0.18049192  0.56665714  0.11970553    -0.66800
O206        O  0.76489396  0.48976032  0.92731442    -0.61800
O207        O  0.90800504  0.56942047  0.82166108    -0.66300
O208        O  0.04324035  0.49091238  0.23684284    -0.60100
Ti209      Ti  0.09719165  0.56036142  0.13039255     1.53200
O210        O  0.82649277  0.62183771  0.88035402    -0.60200
O211        O  0.09076831  0.50584531  0.06790697    -0.60500
O212        O  0.06326807  0.50758008  0.89406094    -0.60600
C213        C  0.78910026  0.47621118  0.88663021     0.99500
O214        O  0.87124914  0.54766465  0.28473785    -0.66600
Ti215      Ti  0.98672016  0.55072867  0.21620056     1.49500
O216        O  0.08720564  0.61819848  0.07163832    -0.60500
N217        N  0.93693727  0.50408754  0.53159168    -0.34600
N218        N  0.00102549  0.58976876  0.50023700    -0.55200
N219        N  0.04520265  0.60422207  0.60105331    -0.34600
N220        N  0.97053652  0.51748486  0.63316370    -0.55200
C221        C  0.92073409  0.50994875  0.48293843     0.29000
C222        C  0.89796823  0.47802541  0.55647248     0.29000
C223        C  0.04638992  0.65317446  0.58348415     0.29000
C224        C  0.04227157  0.60753948  0.65253723     0.29000
C225        C  0.99261674  0.56866425  0.45375419     0.37600
C226        C  0.03270194  0.63125230  0.49284117     0.37600
C227        C  0.94792898  0.47013942  0.63642912     0.37600
C228        C  0.01109880  0.51866624  0.66711095     0.37600
C229        C  0.87039278  0.48750990  0.47599777    -0.19900
C230        C  0.85574837  0.46742433  0.52302905    -0.19900
C231        C  0.04813069  0.68775920  0.62445478    -0.19900
C232        C  0.04569572  0.65872138  0.66840902    -0.19900
C233        C  0.01930428  0.59715458  0.41617086    -0.20900
C234        C  0.04360815  0.63810315  0.44119830    -0.20900
C235        C  0.97270987  0.44146145  0.67442677    -0.20900
C236        C  0.01265623  0.47272666  0.69442043    -0.20900
C237        C  0.95403041  0.52983804  0.44460817    -0.16300
C238        C  0.90711562  0.45261538  0.60304663    -0.16300
C239        C  0.03252888  0.56546505  0.68471308    -0.16300
C240        C  0.04238385  0.66722025  0.53149931    -0.16300
H241        H  0.84775945  0.48388396  0.44049726     0.16600
H242        H  0.82038832  0.44408649  0.53078058     0.16600
H243        H  0.04908919  0.72953982  0.62282591     0.16600
H244        H  0.04401665  0.67366213  0.70736509     0.16600
H245        H  0.01812977  0.59133168  0.37488476     0.14900
H246        H  0.06545206  0.66984614  0.42365119     0.14900
H247        H  0.96280994  0.40253837  0.68656951     0.14900
H248        H  0.03815126  0.46404023  0.72701374     0.14900
H249        H  0.97586280  0.51142950  0.54429855     0.28200
H250        H  0.04407391  0.57001877  0.57979382     0.28200
N251        N  0.46451825  0.96286383  0.52151963    -0.34600
N252        N  0.49994128  0.03254799  0.60667009    -0.55200
N253        N  0.42727019  0.11372757  0.58109580    -0.34600
N254        N  0.38726128  0.04437753  0.50009993    -0.55200
C255        C  0.51597954  0.94913691  0.52777992     0.29000
C256        C  0.45249968  0.95349824  0.47159445     0.29000
C257        C  0.44325939  0.13167029  0.62763529     0.29000
C258        C  0.38190407  0.13852518  0.56930740     0.29000
C259        C  0.53070809  0.99081603  0.61235225     0.37600
C260        C  0.50690549  0.06120603  0.64944667     0.37600
C261        C  0.37125026  0.00580144  0.46845507     0.37600
C262        C  0.34792867  0.07916152  0.49923696     0.37600
C263        C  0.53509602  0.92656024  0.48309466    -0.19900
C264        C  0.49473861  0.92919186  0.44744121    -0.19900
C265        C  0.41140852  0.17256932  0.64244881    -0.19900
C266        C  0.37251839  0.17689217  0.60549658    -0.19900
C267        C  0.55846794  0.99330600  0.65861982    -0.20900
C268        C  0.54287251  0.03772093  0.68254573    -0.20900
C269        C  0.32188842  0.01624761  0.44670607    -0.20900
C270        C  0.30710708  0.06290918  0.46603896    -0.20900
C271        C  0.54817251  0.96236570  0.57021726    -0.16300
C272        C  0.40743481  0.97230857  0.44584879    -0.16300
C273        C  0.34266693  0.12011731  0.53464867    -0.16300
C274        C  0.47836182  0.10622355  0.66137006    -0.16300
H275        H  0.57505899  0.91255727  0.47604742     0.16600
H276        H  0.49753870  0.91771225  0.40741891     0.16600
H277        H  0.41297275  0.19383711  0.67841920     0.16600
H278        H  0.33820116  0.20190204  0.60759677     0.16600
H279        H  0.58926325  0.96742664  0.67185154     0.14900
H280        H  0.55715291  0.05184269  0.71950961     0.14900
H281        H  0.30076296  0.99397514  0.41743083     0.14900
H282        H  0.27002889  0.08242575  0.45762511     0.14900
H283        H  0.44065562  0.98149769  0.54843207     0.28200
H284        H  0.44210693  0.08222193  0.56157962     0.28200
N285        N  0.47477915  0.50004720  0.01457020    -0.34600
N286        N  0.47863754  0.59271163  0.95003748    -0.55200
N287        N  0.40729244  0.63279845  0.03507008    -0.34600
N288        N  0.40144136  0.53858227  0.08650540    -0.55200
C289        C  0.49798487  0.48995041  0.96930186     0.29000
C290        C  0.44524843  0.45825046  0.02655269     0.29000
C291        C  0.40336604  0.66270944  0.99304373     0.29000
C292        C  0.36084404  0.63714535  0.06098069     0.29000
C293        C  0.52660461  0.57245651  0.93932590     0.37600
C294        C  0.48583862  0.64397844  0.94714377     0.37600
C295        C  0.40720653  0.49148210  0.10630587     0.37600
C296        C  0.37720965  0.56742529  0.12192756     0.37600
C297        C  0.48327597  0.44182139  0.95102898    -0.19900
C298        C  0.44838944  0.42185889  0.98701133    -0.19900
C299        C  0.35500743  0.68809973  0.99274838    -0.19900
C300        C  0.32753491  0.67128080  0.03541759    -0.19900
C301        C  0.56371976  0.61068341  0.92692049    -0.20900
C302        C  0.53743732  0.65660214  0.93155657    -0.20900
C303        C  0.38711865  0.48952041  0.15587026    -0.20900
C304        C  0.36753408  0.53814206  0.16577281    -0.20900
C305        C  0.53823779  0.52107940  0.94986639    -0.16300
C306        C  0.42310963  0.45022075  0.07575555    -0.16300
C307        C  0.34730701  0.60972817  0.10623336    -0.16300
C308        C  0.44814051  0.67853052  0.96513455    -0.16300
H309        H  0.49746302  0.42280619  0.91660311     0.16600
H310        H  0.42964676  0.38395982  0.98550839     0.16600
H311        H  0.34230278  0.71746711  0.96592804     0.16600
H312        H  0.28819562  0.68373597  0.04709139     0.16600
H313        H  0.60585605  0.60602819  0.91871180     0.14900
H314        H  0.55515069  0.69477954  0.92753312     0.14900
H315        H  0.38337440  0.45600626  0.18046365     0.14900
H316        H  0.34411015  0.54919594  0.19891167     0.14900
H317        H  0.48342193  0.53201081  0.03788198     0.28200
H318        H  0.44161674  0.61338714  0.04658804     0.28200
C319        C  0.26432186  0.57216746  0.08087521    -0.14400
C320        C  0.28977807  0.60297457  0.11491205    -0.29600
H321        H  0.28659376  0.55392165  0.04992212     0.14600
H322        H  0.26902395  0.62453253  0.14451852     0.15200
C323        C  0.60554429  0.52549497  0.01921073    -0.14400
C324        C  0.59198622  0.51147429  0.97028529    -0.29600
H325        H  0.57543458  0.53585071  0.04723158     0.14600
H326        H  0.62236148  0.50146397  0.94227971     0.15200
C327        C  0.90771803  0.54124841  0.36597382    -0.14400
C328        C  0.94414148  0.51522936  0.39191647    -0.29600
H329        H  0.87742886  0.56385640  0.38542046     0.14600
H330        H  0.97497382  0.49354422  0.37220296     0.15200
C331        C  0.96808614  0.57621195  0.75206857    -0.14400
C332        C  0.01989494  0.57677147  0.73764586    -0.29600
H333        H  0.93578597  0.57238424  0.72399465     0.14600
H334        H  0.05308716  0.58174783  0.76451965     0.15200
C335        C  0.41818935  0.39729516  0.09458092    -0.14400
C336        C  0.45896111  0.36588935  0.08616135    -0.29600
H337        H  0.37966473  0.38278029  0.10807138     0.14600
H338        H  0.49703714  0.38082778  0.07191247     0.15200
C339        C  0.46810648  0.74793696  0.02470022    -0.14400
C340        C  0.46520809  0.73137926  0.97538358    -0.29600
H341        H  0.46480457  0.72109556  0.05668357     0.14600
H342        H  0.46936274  0.75720556  0.94268339     0.15200
C343        C  0.41930120  0.02565309  0.37049901    -0.14400
C344        C  0.41148125  0.97783672  0.38985476    -0.29600
H345        H  0.42126244  0.05933970  0.39561577     0.14600
H346        H  0.41091459  0.94348922  0.36567859     0.15200
C347        C  0.44157321  0.07760092  0.74118108    -0.14400
C348        C  0.46943192  0.11451681  0.71659323    -0.29600
H349        H  0.42565949  0.04442996  0.71987666     0.14600
H350        H  0.48766004  0.14730890  0.73656460     0.15200
C351        C  0.62280606  0.01859097  0.54913852    -0.14400
C352        C  0.60500051  0.97021522  0.55957317    -0.29600
H353        H  0.59518162  0.05061012  0.54696522     0.14600
H354        H  0.63147075  0.93739858  0.56238336     0.15200
C355        C  0.28789681  0.12507119  0.55287545    -0.14400
C356        C  0.26718086  0.08358523  0.57719154    -0.29600
H357        H  0.26330000  0.15599884  0.53800159     0.14600
H358        H  0.29259390  0.05159569  0.58821315     0.15200
C359        C  0.97773554  0.73595954  0.52966891    -0.14400
C360        C  0.02830251  0.72054795  0.52036003    -0.29600
H361        H  0.94591677  0.70778609  0.53673153     0.14600
H362        H  0.06085426  0.74797860  0.51366782     0.15200
C363        C  0.93171169  0.36983764  0.57357392    -0.14400
C364        C  0.89649477  0.39687330  0.60087440    -0.29600
H365        H  0.96610408  0.38959521  0.55647232     0.14600
H366        H  0.86312598  0.37900855  0.62114555     0.15200
C367        C  0.13832525  0.26362797  0.40510588    -0.11300
C368        C  0.12079960  0.24443835  0.44481739    -0.12800
C369        C  0.13403502  0.39254533  0.26533578    -0.11300
C370        C  0.11381910  0.43089327  0.24571523    -0.12800
C371        C  0.30177773  0.22690771  0.24290077    -0.11300
C372        C  0.26468945  0.25059538  0.26220634    -0.12800
C373        C  0.13351194  0.26419068  0.73484659    -0.11300
C374        C  0.11391915  0.24317165  0.69640928    -0.12800
C375        C  0.14281784  0.40326564  0.86662272    -0.11300
C376        C  0.12723647  0.44253550  0.88797324    -0.12800
C377        C  0.31314634  0.24645552  0.88961656    -0.11300
C378        C  0.27379469  0.26526200  0.86913990    -0.12800
C379        C  0.75025342  0.84340849  0.70888714    -0.11300
C380        C  0.77076024  0.85912882  0.66894585    -0.12800
C381        C  0.75638464  0.68155573  0.87320782    -0.11300
C382        C  0.73875046  0.72071352  0.85303235    -0.12800
C383        C  0.58232099  0.89555701  0.86628721    -0.11300
C384        C  0.61921012  0.87132211  0.84702405    -0.12800
C385        C  0.74595499  0.21939116  0.68106087    -0.11300
C386        C  0.72969895  0.24335563  0.71860191    -0.12800
C387        C  0.74863069  0.39171728  0.83892000    -0.11300
C388        C  0.76827273  0.43092165  0.85828841    -0.12800
C389        C  0.60679708  0.26272555  0.86408797    -0.11300
C390        C  0.56853952  0.24587493  0.88814982    -0.12800
C391        C  0.14862465  0.85455780  0.72133775    -0.11300
C392        C  0.13228137  0.87646748  0.68255224    -0.12800
C393        C  0.12871866  0.69199276  0.89168164    -0.11300
C394        C  0.14664085  0.72852896  0.86656422    -0.12800
C395        C  0.28981578  0.85805423  0.85113388    -0.11300
C396        C  0.32946953  0.87961218  0.86866232    -0.12800
C397        C  0.15865774  0.86609176  0.39302573    -0.11300
C398        C  0.14451849  0.88966648  0.43176310    -0.12800
C399        C  0.12683800  0.71950037  0.27264567    -0.11300
C400        C  0.10477427  0.68073088  0.25465306    -0.12800
C401        C  0.31427286  0.85785450  0.21905058    -0.11300
C402        C  0.27567929  0.84122772  0.24312776    -0.12800
C403        C  0.77336141  0.86349201  0.41807061    -0.11300
C404        C  0.75182497  0.84416847  0.37984836    -0.12800
C405        C  0.73956587  0.66907515  0.22390615    -0.11300
C406        C  0.72757512  0.70922055  0.24564037    -0.12800
C407        C  0.60814507  0.85545299  0.25076152    -0.11300
C408        C  0.56920274  0.87497899  0.23074225    -0.12800
C409        C  0.75433845  0.23060132  0.43502605    -0.11300
C410        C  0.73649561  0.25366001  0.39766737    -0.12800
C411        C  0.74236353  0.41845565  0.22831865    -0.11300
C412        C  0.72692104  0.38161984  0.25440206    -0.12800
C413        C  0.55252418  0.22357109  0.25533135    -0.11300
C414        C  0.59125081  0.24584273  0.27355685    -0.12800
loop_ 
_geom_bond_atom_site_label_1 
_geom_bond_atom_site_label_2 
_geom_bond_distance 
_geom_bond_site_symmetry_2 
_ccdc_geom_bond_type 
C1            N2   1.376       .  A
C1            N6   1.362       .  A
C1          C412   1.475       .  S
N2            C3   1.376       .  A
C3            N4   1.358       .  A
C3          C410   1.468       .  S
N4            C5   1.356       .  A
C5            N6   1.361       .  A
C5          C414   1.446       .  S
C7            N8   1.371       .  A
C7           N12   1.359       .  A
C7          C406   1.464       .  S
N8            C9   1.371       .  A
C9           N10   1.366       .  A
C9          C404   1.473       .  S
N10          C11   1.365       .  A
C11          N12   1.359       .  A
C11         C407   1.455       .  S
C13          N14   1.367       .  A
C13          N18   1.364       .  A
C13         C402   1.467       .  S
N14          C15   1.367       .  A
C15          N16   1.372       .  A
C15         C397   1.477       .  S
N16          C17   1.371       .  A
C17          N18   1.365       .  A
C17         C399   1.473       .  S
C19          N20   1.362       .  A
C19          N24   1.360       .  A
C19         C395   1.452       .  S
N20          C21   1.362       .  A
C21          N22   1.376       .  A
C21         C394   1.477       .  S
N22          C23   1.375       .  A
C23          N24   1.360       .  A
C23         C391   1.473       .  S
C25          N26   1.372       .  A
C25          N30   1.365       .  A
C25         C386   1.472       .  S
N26          C27   1.371       .  A
C27          N28   1.362       .  A
C27         C387   1.469       .  S
N28          C29   1.361       .  A
C29          N30   1.365       .  A
C29         C389   1.459       .  S
C31          N32   1.367       .  A
C31          N36   1.367       .  A
C31         C379   1.470       .  S
N32          C33   1.367       .  A
C33          N34   1.370       .  A
C33         C384   1.475       .  S
N34          C35   1.370       .  A
C35          N36   1.367       .  A
C35         C382   1.475       .  S
C37          N38   1.361       .  A
C37          N42   1.367       .  A
C37         C378   1.464       .  S
N38          C39   1.362       .  A
C39          N40   1.371       .  A
C39         C375   1.469       .  S
N40          C41   1.371       .  A
C41          N42   1.368       .  A
C41         C373   1.478       .  S
C43          N44   1.363       .  A
C43          N48   1.370       .  A
C43         C372   1.470       .  S
N44          C45   1.363       .  A
C45          N46   1.369       .  A
C45         C367   1.469       .  S
N46          C47   1.369       .  A
C47          N48   1.370       .  A
C47         C369   1.478       .  S
O49         Ti67   2.136       .  S
O49         Ti66   2.151   1_455  S
O50          C51   1.271       .  A
O50         Ti58   2.144       .  S
C51         C409   1.469       .  S
C51          O87   1.283       .  A
O52          C85   1.273       .  A
O52         Ti89   2.123       .  S
O53         Ti89   2.172       .  S
O53         Ti67   2.167       .  S
C54          O69   1.260   1_545  A
C54         O102   1.276       .  A
C54         C351   1.447       .  S
O55          C57   1.271       .  A
O55         Ti58   2.122       .  S
C56         C385   1.470       .  S
C56          O91   1.284       .  A
C56          O77   1.268       .  A
C57          O70   1.264       .  A
C57         C363   1.439       .  S
Ti58         O71   2.144       .  S
Ti58         O74   2.150       .  S
Ti58         O60   2.151       .  S
Ti58         O77   2.130       .  S
Ti59        O104   2.144   1_455  S
Ti59         O99   2.152   1_455  S
Ti59         O78   2.135       .  S
Ti59         O76   2.066       .  S
Ti59         O73   2.127       .  S
Ti59         O82   2.150       .  S
O60         Ti66   2.153       .  S
O61        Ti103   2.173   1_545  S
O61         Ti65   2.183       .  S
C62         C392   1.473       .  S
C62          O82   1.270       .  A
C62          O86   1.278       .  A
O63         Ti97   2.170       .  S
O63        Ti103   2.133       .  S
C64         C403   1.473       .  S
C64          O90   1.273       .  A
C64          O96   1.275       .  A
Ti65         O80   2.174       .  S
Ti65         O71   2.144       .  S
Ti65        O102   2.140       .  S
Ti65         O91   2.201       .  S
Ti65         O87   2.189       .  S
Ti66         O74   2.146       .  S
Ti66         O94   2.148   1_655  S
Ti66         O70   2.087       .  S
Ti66         O81   2.166   1_655  S
Ti67         O72   2.164       .  S
Ti67         O98   2.168       .  S
Ti67         O92   2.174       .  S
Ti67         O95   2.055       .  S
O68          C84   1.274       .  A
O68        Ti103   2.160       .  S
O69        Ti103   2.054       .  S
O72         Ti89   2.165       .  S
O73          C88   1.265       .  A
O75          C84   1.277       .  A
O75         Ti97   2.171       .  S
O76          C79   1.262   1_455  A
O78         Ti89   2.149   1_565  S
C79          O93   1.278       .  A
C79         C359   1.461       .  S
O80        Ti103   2.173   1_545  S
O81          C83   1.271       .  A
C83         C374   1.477       .  S
C83          O98   1.272       .  A
C84         C380   1.470       .  S
C85          O95   1.259       .  A
C85         C356   1.434       .  S
O86         Ti89   2.181   1_565  S
C88         C398   1.475       .  S
C88         O100   1.284       .  A
Ti89        O100   2.208   1_545  S
O90         Ti97   2.161       .  S
O92         C101   1.275       .  A
O93         Ti97   2.155       .  S
O94         C101   1.269       .  A
O96        Ti103   2.171       .  S
Ti97        O104   2.150       .  S
Ti97         O99   2.154       .  S
C101        C368   1.468       .  S
O105       Ti123   2.145       .  S
O105       Ti122   2.129       .  S
O106        C107   1.269       .  A
O106       Ti114   2.151       .  S
C107        C413   1.445       .  S
C107        O143   1.262       .  A
O108        C141   1.256   1_556  A
O108       Ti145   2.041       .  S
O109       Ti145   2.160   1_554  S
O109       Ti123   2.151       .  S
C110        O125   1.272       .  A
C110        O158   1.259       .  A
C110        C336   1.429       .  S
O111        C113   1.273       .  A
O111       Ti114   2.128       .  S
C112        C371   1.469       .  S
C112        O147   1.275       .  A
C112        O133   1.279       .  A
C113        O126   1.261   1_545  A
C113        C343   1.442       .  S
Ti114       O127   2.153       .  S
Ti114       O130   2.154       .  S
Ti114       O116   2.155       .  S
Ti114       O133   2.172       .  S
Ti115       O160   2.154       .  S
Ti115       O155   2.147       .  S
Ti115       O134   2.149   1_545  S
Ti115       O132   2.106       .  S
Ti115       O129   2.192   1_545  S
Ti115       O138   2.136   1_545  S
O116       Ti122   2.161   1_545  S
O117       Ti159   2.157       .  S
O117       Ti121   2.168       .  S
C118        C396   1.451       .  S
C118        O138   1.266       .  A
C118        O142   1.267       .  A
O119       Ti153   2.142       .  S
O119       Ti159   2.142   1_556  S
C120        C390   1.458       .  S
C120        O146   1.267       .  A
C120        O152   1.275       .  A
Ti121       O136   2.158       .  S
Ti121       O127   2.127       .  S
Ti121       O158   2.078       .  S
Ti121       O147   2.163       .  S
Ti121       O143   2.120       .  S
Ti122       O130   2.141   1_565  S
Ti122       O150   2.147       .  S
Ti122       O126   2.066       .  S
Ti122       O137   2.131       .  S
Ti123       O128   2.171       .  S
Ti123       O154   2.189       .  S
Ti123       O148   2.147       .  S
Ti123       O151   2.129       .  S
O124        C140   1.281       .  A
O124       Ti159   2.183   1_556  S
O125       Ti159   2.114       .  S
O128       Ti145   2.152   1_554  S
O129        C144   1.280       .  A
O131        C140   1.272       .  A
O131       Ti153   2.142       .  S
O132        C135   1.270       .  A
O134       Ti145   2.126       .  S
C135        O149   1.269       .  A
C135        C347   1.440       .  S
O136       Ti159   2.171       .  S
O137        C139   1.267       .  A
C139        C401   1.466       .  S
C139        O154   1.280       .  A
C140        C377   1.464       .  S
C141        O151   1.271       .  A
C141        C339   1.441       .  S
O142       Ti145   2.146       .  S
C144        C383   1.474       .  S
C144        O156   1.269       .  A
Ti145       O156   2.144       .  S
O146       Ti153   2.134       .  S
O148        C157   1.269       .  A
O149       Ti153   2.106       .  S
O150        C157   1.269       .  A
O152       Ti159   2.168   1_556  S
Ti153       O160   2.143       .  S
Ti153       O155   2.157       .  S
C157        C408   1.455       .  S
O161       Ti179   2.141       .  S
O161       Ti178   2.129       .  S
O162        C163   1.282       .  A
O162       Ti170   2.195       .  S
C163        C411   1.475       .  S
C163        O199   1.268       .  A
O164        C197   1.253       .  A
O164       Ti201   2.025   1_655  S
O165       Ti201   2.158   1_655  S
O165       Ti179   2.165       .  S
C166        O181   1.270       .  A
C166        O214   1.256       .  A
C166        C327   1.432       .  S
O167        C169   1.285       .  A
O167       Ti170   2.172       .  S
C168        C405   1.462       .  S
C168        O203   1.267       .  A
C168        O189   1.282       .  A
C169        O182   1.263   1_554  A
C169        C323   1.464       .  S
Ti170       O183   2.171       .  S
Ti170       O186   2.161       .  S
Ti170       O172   2.158       .  S
Ti170       O189   2.187       .  S
Ti171       O216   2.156       .  S
Ti171       O211   2.152       .  S
Ti171       O190   2.156   1_554  S
Ti171       O188   2.106       .  S
Ti171       O185   2.173   1_554  S
Ti171       O194   2.194   1_554  S
O172       Ti178   2.147   1_554  S
O173       Ti215   2.169       .  S
O173       Ti177   2.172       .  S
C174        C393   1.477       .  S
C174        O194   1.278       .  A
C174        O198   1.265       .  A
O175       Ti209   2.142       .  S
O175       Ti215   2.135   1_455  S
C176        C370   1.478       .  S
C176        O202   1.276       .  A
C176        O208   1.278       .  A
Ti177       O192   2.162       .  S
Ti177       O183   2.133       .  S
Ti177       O214   2.078       .  S
Ti177       O203   2.127       .  S
Ti177       O199   2.143       .  S
Ti178       O186   2.165   1_556  S
Ti178       O206   2.152       .  S
Ti178       O182   2.056       .  S
Ti178       O193   2.179       .  S
Ti179       O184   2.160       .  S
Ti179       O210   2.157       .  S
Ti179       O204   2.172       .  S
Ti179       O207   2.123       .  S
O180        C196   1.278       .  A
O180       Ti215   2.184   1_455  S
O181       Ti215   2.093       .  S
O184       Ti201   2.152   1_655  S
O185        C200   1.276       .  A
O187        C196   1.271       .  A
O187       Ti209   2.148       .  S
O188        C191   1.272       .  A
O190       Ti201   2.124       .  S
C191        O205   1.270       .  A
C191        C319   1.435       .  S
O192       Ti215   2.167       .  S
O193        C195   1.277       .  A
C195        C381   1.474       .  S
C195        O210   1.272       .  A
C196        C400   1.472       .  S
C197        O207   1.267       .  A
C197        C331   1.438       .  S
O198       Ti201   2.140       .  S
C200        C376   1.468       .  S
C200        O212   1.269       .  A
Ti201       O212   2.147       .  S
O202       Ti209   2.171       .  S
O204        C213   1.274       .  A
O205       Ti209   2.103       .  S
O206        C213   1.270       .  A
O208       Ti215   2.177   1_455  S
Ti209       O216   2.157       .  S
Ti209       O211   2.150       .  S
C213        C388   1.469       .  S
N217        C222   1.345       .  A
N217        C221   1.334       .  A
N217        H249   1.040       .  S
N218        C225   1.337   1_455  A
N218        C226   1.339       .  A
N219        C224   1.341       .  A
N219        C223   1.348       .  A
N219        H250   1.042       .  S
N220        C227   1.345       .  A
N220        C228   1.339   1_655  A
C221        C229   1.388       .  A
C221        C237   1.394       .  A
C222        C238   1.398       .  A
C222        C230   1.386       .  A
C223        C231   1.388       .  A
C223        C240   1.402       .  A
C224        C239   1.394       .  A
C224        C232   1.388       .  A
C225        C237   1.401       .  A
C225        C233   1.391   1_655  A
C226        C240   1.385       .  A
C226        C234   1.381       .  A
C227        C235   1.386       .  A
C227        C238   1.404       .  A
C228        C236   1.388       .  A
C228        C239   1.392       .  A
C229        C230   1.377       .  A
C229        H241   1.082       .  S
C230        H242   1.082       .  S
C231        C232   1.370       .  A
C231        H243   1.083       .  S
C232        H244   1.083       .  S
C233        C234   1.374       .  A
C233        H245   1.082       .  S
C234        H246   1.083       .  S
C235        C236   1.374   1_655  A
C235        H247   1.082       .  S
C236        H248   1.083       .  S
C237        C328   1.437       .  S
C238        C364   1.464       .  S
C239        C332   1.441       .  S
C240        C360   1.459       .  S
N251        C256   1.349       .  A
N251        C255   1.347       .  A
N251        H283   1.042       .  S
N252        C259   1.343   1_545  A
N252        C260   1.343       .  A
N253        C258   1.345       .  A
N253        C257   1.349       .  A
N253        H284   1.033       .  S
N254        C261   1.346       .  A
N254        C262   1.342       .  A
C255        C263   1.387       .  A
C255        C271   1.399       .  A
C256        C272   1.400       .  A
C256        C264   1.387       .  A
C257        C265   1.388       .  A
C257        C274   1.408       .  A
C258        C273   1.404       .  A
C258        C266   1.388       .  A
C259        C271   1.392       .  A
C259        C267   1.385       .  A
C260        C274   1.409       .  A
C260        C268   1.388       .  A
C261        C269   1.384       .  A
C261        C272   1.392   1_545  A
C262        C270   1.391       .  A
C262        C273   1.409       .  A
C263        C264   1.368       .  A
C263        H275   1.083       .  S
C264        H276   1.082       .  S
C265        C266   1.368       .  A
C265        H277   1.083       .  S
C266        H278   1.083       .  S
C267        C268   1.368   1_565  A
C267        H279   1.083       .  S
C268        H280   1.083       .  S
C269        C270   1.363       .  A
C269        H281   1.083   1_545  S
C270        H282   1.083       .  S
C271        C352   1.458       .  S
C272        C344   1.465       .  S
C273        C355   1.456       .  S
C274        C348   1.467       .  S
N285        C290   1.339       .  A
N285        C289   1.339   1_554  A
N285        H317   1.043       .  S
N286        C293   1.344       .  A
N286        C294   1.339       .  A
N287        C292   1.349       .  A
N287        C291   1.344   1_554  A
N287        H318   1.043       .  S
N288        C295   1.334       .  A
N288        C296   1.335       .  A
C289        C297   1.376       .  A
C289        C305   1.378       .  A
C290        C306   1.409       .  A
C290        C298   1.394   1_554  A
C291        C299   1.383       .  A
C291        C308   1.392       .  A
C292        C307   1.414       .  A
C292        C300   1.390       .  A
C293        C305   1.393       .  A
C293        C301   1.386       .  A
C294        C308   1.389       .  A
C294        C302   1.387       .  A
C295        C303   1.384       .  A
C295        C306   1.392       .  A
C296        C304   1.390       .  A
C296        C307   1.395       .  A
C297        C298   1.377       .  A
C297        H309   1.082       .  S
C298        H310   1.081       .  S
C299        C300   1.374   1_556  A
C299        H311   1.083       .  S
C300        H312   1.082       .  S
C301        C302   1.371       .  A
C301        H313   1.083       .  S
C302        H314   1.083       .  S
C303        C304   1.381       .  A
C303        H315   1.082       .  S
C304        H316   1.082       .  S
C305        C324   1.465       .  S
C306        C335   1.460       .  S
C307        C320   1.463       .  S
C308        C340   1.451       .  S
C319        C320   1.340       .  D
C319        H321   1.090       .  S
C320        H322   1.086       .  S
C323        C324   1.360   1_554  D
C323        H325   1.084       .  S
C324        H326   1.086       .  S
C327        C328   1.323       .  D
C327        H329   1.088       .  S
C328        H330   1.088       .  S
C331        C332   1.348   1_655  D
C331        H333   1.088       .  S
C332        H334   1.087       .  S
C335        C336   1.330       .  D
C335        H337   1.087       .  S
C336        H338   1.088       .  S
C339        C340   1.350   1_554  D
C339        H341   1.087       .  S
C340        H342   1.087       .  S
C343        C344   1.349   1_545  D
C343        H345   1.088       .  S
C344        H346   1.087       .  S
C347        C348   1.339       .  D
C347        H349   1.089       .  S
C348        H350   1.086       .  S
C351        C352   1.352   1_545  D
C351        H353   1.088       .  S
C352        H354   1.086       .  S
C355        C356   1.346       .  D
C355        H357   1.087       .  S
C356        H358   1.089       .  S
C359        C360   1.352   1_655  D
C359        H361   1.087       .  S
C360        H362   1.086       .  S
C363        C364   1.336       .  D
C363        H365   1.090       .  S
C364        H366   1.086       .  S
C367        C368   1.226       .  T
C369        C370   1.231       .  T
C371        C372   1.226       .  T
C373        C374   1.231       .  T
C375        C376   1.226       .  T
C377        C378   1.223       .  T
C379        C380   1.226       .  T
C381        C382   1.229       .  T
C383        C384   1.229       .  T
C385        C386   1.227       .  T
C387        C388   1.226       .  T
C389        C390   1.220       .  T
C391        C392   1.228       .  T
C393        C394   1.231       .  T
C395        C396   1.215       .  T
C397        C398   1.230       .  T
C399        C400   1.228       .  T
C401        C402   1.225       .  T
C403        C404   1.228       .  T
C405        C406   1.223       .  T
C407        C408   1.218       .  T
C409        C410   1.226       .  T
C411        C412   1.230       .  T
C413        C414   1.212       .  T
