geometry optimzed in LAMMPS
_audit_creation_date              2020-12-01 
_audit_creation_method            'lammps2cif' 
_symmetry_space_group_name_H-M    'P1' 
_symmetry_Int_Tables_number       1 
_symmetry_cell_setting            triclinic 
loop_ 
_symmetry_equiv_pos_as_xyz 
  x,y,z 
_cell_length_a                    30.60948508 
_cell_length_b                    31.015312864831106 
_cell_length_c                    52.93607043273226 
_cell_angle_alpha                 89.89161870482792 
_cell_angle_beta                  89.94977385229484 
_cell_angle_gamma                 90.51334826498824 
loop_ 
_atom_site_label 
_atom_site_type_symbol 
_atom_site_fract_x 
_atom_site_fract_y 
_atom_site_fract_z 
_atom_site_charge 
O1          O  0.12867651  0.82815247  0.50934778    -0.72200
O2          O  0.02825739  0.83839374  0.55214530    -0.72500
O3          O  0.05073688  0.86961122  0.50710440    -0.72300
O4          O  0.10372279  0.79577380  0.55417166    -0.72300
O5          O  0.13191518  0.85020322  0.57421091    -0.72300
O6          O  0.08090722  0.92523079  0.52506136    -0.72300
O7          O  0.05838738  0.89397877  0.57005421    -0.72300
O8          O  0.15825086  0.88264708  0.52855009    -0.72400
V9          V  0.07871754  0.83410213  0.53088241     1.35200
V10         V  0.10728300  0.88700525  0.54885117     1.35200
C11         C  0.16125104  0.85331268  0.51212349     0.77000
C12         C  0.02703799  0.86750493  0.56894376     0.77000
C13         C  0.05375419  0.90993511  0.50925923     0.76900
C14         C  0.12258561  0.81027294  0.57353682     0.64100
O15         O  0.86739025  0.85926352  0.70978763    -0.72200
O16         O  0.87058467  0.76061837  0.66698475    -0.72500
O17         O  0.90767324  0.83838311  0.66587513    -0.72300
O18         O  0.83051757  0.77959728  0.71006232    -0.72300
O19         O  0.77518572  0.80748258  0.69085327    -0.72300
O20         O  0.85300251  0.86019201  0.64351631    -0.72300
O21         O  0.81285465  0.78330995  0.64735933    -0.72300
O22         O  0.81540168  0.88562777  0.68704644    -0.72400
V23         V  0.86794205  0.81022592  0.68792660     1.35200
V24         V  0.81501729  0.83387359  0.66772090     1.35200
C25         C  0.84152913  0.89005598  0.70539821     0.77000
C26         C  0.84247529  0.75543693  0.64974482     0.77000
C27         C  0.89389158  0.85666721  0.64609360     0.76900
C28         C  0.78962924  0.78207524  0.70754685     0.76900
O29         O  0.11099815  0.57098887  0.70641376    -0.72200
O30         O  0.11274426  0.67630559  0.66971820    -0.72500
O31         O  0.07112303  0.60151673  0.66430403    -0.72300
O32         O  0.15228274  0.64764457  0.71083097    -0.72300
O33         O  0.20571335  0.62274525  0.68865655    -0.72300
O34         O  0.12410838  0.57852517  0.64092875    -0.72300
O35         O  0.16682295  0.65321502  0.64701998    -0.72300
O36         O  0.16315936  0.54681658  0.68276483    -0.72400
V37         V  0.11282741  0.62327678  0.68748648     1.35200
V38         V  0.16400911  0.60050726  0.66539449     1.35200
C39         C  0.13700716  0.54090959  0.70098130     0.77000
C40         C  0.13928038  0.68223131  0.65173924     0.77000
C41         C  0.08367056  0.58505534  0.64374447     0.76900
C42         C  0.19289359  0.64520115  0.70708047     0.76900
O43         O  0.84862332  0.60586088  0.50450212    -0.72200
O44         O  0.94881119  0.60543189  0.54776017    -0.72500
O45         O  0.92732824  0.56806920  0.50362075    -0.72300
O46         O  0.87138748  0.64410606  0.54844113    -0.72300
O47         O  0.84922684  0.59027362  0.57137197    -0.72300
O48         O  0.89783868  0.51359603  0.52277806    -0.72300
O49         O  0.92334018  0.54800555  0.56611039    -0.72300
O50         O  0.82024426  0.55450027  0.52733539    -0.72400
V51         V  0.89836601  0.60482239  0.52633160     1.35200
V52         V  0.87266362  0.55256991  0.54628258     1.35200
C53         C  0.81694039  0.58044330  0.50903476     0.77000
C54         C  0.95227729  0.57701020  0.56489113     0.77000
C55         C  0.92393813  0.52784510  0.50602683     0.76900
C56         C  0.85577100  0.63050753  0.56904534     0.76900
O57         O  0.60853006  0.57426604  0.76195771    -0.72200
O58         O  0.62144775  0.66966794  0.80693763    -0.72500
O59         O  0.64888246  0.65289628  0.76059197    -0.72300
O60         O  0.58044810  0.59353595  0.80840108    -0.72300
O61         O  0.63807088  0.56590850  0.82555856    -0.72300
O62         O  0.70725596  0.62242884  0.77494233    -0.72300
O63         O  0.68110297  0.64191582  0.82136733    -0.72300
O64         O  0.66549236  0.54482076  0.77897704    -0.72400
V65         V  0.61597456  0.62178894  0.78464201     1.35200
V66         V  0.67191775  0.59410300  0.79980130     1.35200
C67         C  0.63409165  0.54241195  0.76358804     0.77000
C68         C  0.65419839  0.67244777  0.82149028     0.77000
C69         C  0.68990644  0.65034383  0.76065912     0.76900
C70         C  0.59698388  0.57066298  0.82553140     0.76900
O71         O  0.36719973  0.59508918  0.96216596    -0.72200
O72         O  0.46517564  0.58419627  0.91764980    -0.72500
O73         O  0.39284299  0.63167311  0.91762972    -0.72300
O74         O  0.44175833  0.54903613  0.96156703    -0.72300
O75         O  0.40597259  0.49783629  0.94249460    -0.72300
O76         O  0.36152530  0.58066879  0.89596728    -0.72300
O77         O  0.43193406  0.53117013  0.89889872    -0.72300
O78         O  0.33306512  0.54636134  0.94021671    -0.72400
V79         V  0.41578631  0.58914096  0.93949727     1.35200
V80         V  0.38339403  0.54010381  0.91994155     1.35200
C81         C  0.33340041  0.57180455  0.95879134     0.77000
C82         C  0.46487688  0.55553648  0.90059880     0.77000
C83         C  0.37217841  0.62006039  0.89812990     0.76900
C84         C  0.43421641  0.50933264  0.95866453     0.76900
O85         O  0.37153945  0.85341333  0.75973326    -0.72200
O86         O  0.37487174  0.75287466  0.80117357    -0.72500
O87         O  0.33629614  0.77300932  0.75787345    -0.72300
O88         O  0.41049703  0.83112856  0.80360244    -0.72300
O89         O  0.35434719  0.85152708  0.82550722    -0.72300
O90         O  0.27971422  0.79772893  0.77728095    -0.72300
O91         O  0.31716690  0.77415335  0.82118118    -0.72300
O92         O  0.31684177  0.87714545  0.78167382    -0.72400
V93         V  0.37212162  0.80334329  0.78084008     1.35200
V94         V  0.31791712  0.82493657  0.80082985     1.35200
C95         C  0.34417231  0.88293242  0.76400545     0.77000
C96         C  0.34754098  0.74705751  0.81882268     0.77000
C97         C  0.29535352  0.77345591  0.76041508     0.76900
C98         C  0.39532172  0.84821116  0.82333496     0.76900
O99         O  0.63191711  0.82371734  0.95859812    -0.72200
O100        O  0.53757520  0.82661808  0.91125685    -0.72500
O101        O  0.61653761  0.78983435  0.91225647    -0.72300
O102        O  0.55156971  0.85906091  0.95710459    -0.72300
O103        O  0.58236341  0.91665074  0.94154232    -0.72300
O104        O  0.64101013  0.84704039  0.89306803    -0.72300
O105        O  0.56347607  0.88635311  0.89616273    -0.72300
O106        O  0.66151175  0.87810328  0.93917877    -0.72400
V107        V  0.58518417  0.82577481  0.93454994     1.35200
V108        V  0.61189661  0.88088783  0.91792177     1.35200
C109        C  0.66318463  0.85066305  0.95681828     0.77000
C110        C  0.53345155  0.85833819  0.89631100     0.77000
C111        C  0.63762528  0.80636391  0.89409225     0.76900
C112        C  0.55436724  0.89961192  0.95619290     0.76900
O113        O  0.63168563  0.31856315  0.00952500    -0.72200
O114        O  0.53161011  0.32467764  0.05304479    -0.72500
O115        O  0.55253642  0.35854131  0.00836320    -0.72300
O116        O  0.60829992  0.28347638  0.05423468    -0.72300
O117        O  0.63520638  0.33826661  0.07466665    -0.72300
O118        O  0.58273012  0.41378710  0.02667911    -0.72300
O119        O  0.55981673  0.38086872  0.07082546    -0.72300
O120        O  0.66029386  0.37243877  0.02990643    -0.72400
V121        V  0.58181863  0.32232862  0.03151341     1.35200
V122        V  0.60930924  0.37519667  0.05001201     1.35200
C123        C  0.66377141  0.34414360  0.01293375     0.77000
C124        C  0.52810843  0.35498281  0.06896659     0.77000
C125        C  0.55562395  0.39890699  0.01078100     0.76900
C126        C  0.62917407  0.29789862  0.07296836     0.76900
O127        O  0.37057649  0.34895961  0.20528818    -0.72200
O128        O  0.37574665  0.24790757  0.16503488    -0.72500
O129        O  0.40764579  0.32763326  0.16091608    -0.72300
O130        O  0.33873131  0.26756172  0.20909801    -0.72300
O131        O  0.27987432  0.28740500  0.18954490    -0.72300
O132        O  0.34922854  0.34658338  0.14059478    -0.72300
O133        O  0.31678869  0.26710226  0.14537670    -0.72300
O134        O  0.31234805  0.36903851  0.18516567    -0.72400
V135        V  0.37195004  0.29864703  0.18481223     1.35200
V136        V  0.31556535  0.31741436  0.16572759     1.35200
C137        C  0.34091714  0.37650989  0.20190595     0.77000
C138        C  0.34777476  0.24081873  0.14795888     0.77000
C139        C  0.39043398  0.34483816  0.14175158     0.76900
C140        C  0.29773313  0.26533292  0.20676269     0.76900
O141        O  0.61535186  0.05607549  0.20383880    -0.72200
O142        O  0.61647198  0.15242536  0.15883484    -0.72500
O143        O  0.58096921  0.07376950  0.15834002    -0.72300
O144        O  0.65003097  0.13698140  0.20403618    -0.72300
O145        O  0.70838990  0.10765609  0.18894245    -0.72300
O146        O  0.63882466  0.05404367  0.13787007    -0.72300
O147        O  0.67834359  0.13130439  0.14388506    -0.72300
O148        O  0.67011132  0.02922563  0.18326297    -0.72400
V149        V  0.61678947  0.10408861  0.18107029     1.35200
V150        V  0.67288679  0.08073351  0.16388090     1.35200
C151        C  0.64183224  0.02536372  0.20053569     0.77000
C152        C  0.64866806  0.15926752  0.14427111     0.77000
C153        C  0.59756082  0.05543042  0.13943381     0.76900
C154        C  0.69109253  0.13481036  0.20364122     0.76900
O155        O  0.35741418  0.08574739  0.00898288    -0.72200
O156        O  0.45886799  0.07307107  0.05051651    -0.72500
O157        O  0.43250487  0.03976772  0.00679020    -0.72300
O158        O  0.38629049  0.12015280  0.05241905    -0.72300
O159        O  0.35556602  0.06884867  0.07415760    -0.72300
O160        O  0.40043446  0.98712554  0.02681734    -0.72300
O161        O  0.42664493  0.02040348  0.07014108    -0.72300
O162        O  0.32612708  0.03407596  0.02990234    -0.72400
V163        V  0.40789306  0.07864564  0.02992031     1.35200
V164        V  0.37729789  0.02869134  0.04969705     1.35200
C165        C  0.32387817  0.06222313  0.01271176     0.77000
C166        C  0.45973903  0.04431741  0.06759555     0.77000
C167        C  0.42719251  0.99982824  0.01003340     0.76900
C168        C  0.36651838  0.10829153  0.07212857     0.76900
O169        O  0.86479370  0.34528311  0.25618868    -0.72200
O170        O  0.87043211  0.24751416  0.29949756    -0.72500
O171        O  0.83117785  0.26437639  0.25595974    -0.72300
O172        O  0.90418064  0.32651212  0.30059278    -0.72300
O173        O  0.84765598  0.34690432  0.32193787    -0.72300
O174        O  0.77412704  0.28982944  0.27455112    -0.72300
O175        O  0.81144270  0.26835969  0.31859298    -0.72300
O176        O  0.80991268  0.36941246  0.27787819    -0.72400
V177        V  0.86649824  0.29666292  0.27828663     1.35200
V178        V  0.81176599  0.31836526  0.29774715     1.35200
C179        C  0.83688190  0.37442294  0.26000937     0.77000
C180        C  0.84212638  0.24157985  0.31656224     0.77000
C181        C  0.79014200  0.26509661  0.25808644     0.76900
C182        C  0.88873328  0.34454914  0.31998785     0.76900
O183        O  0.11641287  0.32769020  0.46150244    -0.72200
O184        O  0.01935084  0.33171849  0.41612255    -0.72500
O185        O  0.09528907  0.28990909  0.41746559    -0.72300
O186        O  0.03937112  0.36839108  0.46048120    -0.72300
O187        O  0.07120303  0.42168501  0.44150116    -0.72300
O188        O  0.12215995  0.34234777  0.39502803    -0.72300
O189        O  0.04878356  0.38713147  0.39762974    -0.72300
O190        O  0.14806383  0.37842947  0.43965769    -0.72400
V191        V  0.06835103  0.33045446  0.43860114     1.35200
V192        V  0.09746845  0.38143462  0.41905566     1.35200
C193        C  0.14914587  0.35223262  0.45794556     0.77000
C194        C  0.01809750  0.35992374  0.39874206     0.77000
C195        C  0.11401080  0.30239750  0.39752120     0.76900
C196        C  0.04369377  0.40843285  0.45779393     0.76900
O197        O  0.11532479  0.06497823  0.26285643    -0.72200
O198        O  0.10930491  0.16464417  0.30415176    -0.72500
O199        O  0.14989647  0.14527889  0.26118526    -0.72300
O200        O  0.07433831  0.08612910  0.30633805    -0.72300
O201        O  0.12983201  0.06376652  0.32800584    -0.72300
O202        O  0.20609604  0.12370378  0.28262202    -0.72300
O203        O  0.16523569  0.14255375  0.32570980    -0.72300
O204        O  0.17122373  0.04281947  0.28440121    -0.72400
V205        V  0.11338712  0.11453991  0.28393587     1.35200
V206        V  0.16713038  0.09333354  0.30460975     1.35200
C207        C  0.14418038  0.03678331  0.26667993     0.77000
C208        C  0.13570741  0.17005792  0.32222531     0.77000
C209        C  0.19055537  0.14676049  0.26507258     0.76900
C210        C  0.08882747  0.06734913  0.32577303     0.76900
O211        O  0.84841318  0.09152078  0.46022506    -0.72200
O212        O  0.94865629  0.08441280  0.41685523    -0.72500
O213        O  0.87322781  0.12735165  0.41626772    -0.72300
O214        O  0.92619448  0.04948686  0.46109553    -0.72300
O215        O  0.89315941  0.99572502  0.44285654    -0.72300
O216        O  0.84800711  0.07440829  0.39378558    -0.72300
O217        O  0.92010115  0.02819648  0.39905522    -0.72300
O218        O  0.81735380  0.04098408  0.43826907    -0.72400
V219        V  0.89831745  0.08711354  0.43840872     1.35200
V220        V  0.86967482  0.03580976  0.41908778     1.35200
C221        C  0.81486259  0.06831364  0.45591222     0.77000
C222        C  0.95127943  0.05487464  0.40034995     0.77000
C223        C  0.85630016  0.11437897  0.39596346     0.76900
C224        C  0.92111841  0.00936462  0.45869364     0.76900
O225        O  0.59694740  0.35624536  0.70634311    -0.72200
O226        O  0.60022483  0.25792104  0.66313882    -0.72500
O227        O  0.63347606  0.27736566  0.70874774    -0.72300
O228        O  0.56321841  0.33566864  0.66119542    -0.72300
O229        O  0.62118427  0.36146885  0.64264869    -0.72300
O230        O  0.69161842  0.30125081  0.69006507    -0.72300
O231        O  0.65811724  0.28344754  0.64513407    -0.72300
O232        O  0.65556664  0.38099063  0.68805149    -0.72400
V233        V  0.59961289  0.30733985  0.68458025     1.35200
V234        V  0.65552499  0.33154790  0.66695890     1.35200
C235        C  0.62546384  0.38584165  0.70412721     0.77000
C236        C  0.62991842  0.25368859  0.64666214     0.77000
C237        C  0.67451408  0.27735977  0.70690198     0.76900
C238        C  0.58001773  0.35757722  0.64354102     0.76900
O239        O  0.33571199  0.33299525  0.51916199    -0.72200
O240        O  0.43552307  0.34478105  0.56161654    -0.72500
O241        O  0.35814078  0.30421931  0.56507663    -0.72300
O242        O  0.41531121  0.37234988  0.51605166    -0.72300
O243        O  0.38458163  0.42976432  0.53067317    -0.72300
O244        O  0.33407147  0.36171311  0.58369942    -0.72300
O245        O  0.40978228  0.40460336  0.57610209    -0.72300
O246        O  0.30692034  0.38838567  0.53748748    -0.72400
V247        V  0.38532645  0.33964341  0.54068454     1.35200
V248        V  0.35894641  0.39496822  0.55661675     1.35200
C249        C  0.30374836  0.35841746  0.52145296     0.77000
C250        C  0.44058786  0.37800294  0.57523492     0.77000
C251        C  0.33858716  0.32110449  0.58346402     0.76900
C252        C  0.41240015  0.41284960  0.51606151     0.76900
O253        O  0.36985671  0.07204868  0.70650611    -0.72200
O254        O  0.36029380  0.17375828  0.66590357    -0.72500
O255        O  0.33240204  0.15090845  0.71135824    -0.72300
O256        O  0.39889178  0.09698009  0.66063361    -0.72300
O257        O  0.33952008  0.07285794  0.64287732    -0.72300
O258        O  0.27269141  0.12480294  0.69514383    -0.72300
O259        O  0.30031734  0.14881138  0.64999874    -0.72300
O260        O  0.31100027  0.04670873  0.68903499    -0.72400
V261        V  0.36426767  0.12258423  0.68588939     1.35200
V262        V  0.30711370  0.09832557  0.66969998     1.35200
C263        C  0.34209206  0.04163005  0.70445891     0.77000
C264        C  0.32747443  0.17946806  0.65171589     0.77000
C265        C  0.29125338  0.15036097  0.71043313     0.76900
C266        C  0.38058591  0.07799159  0.64242252     0.76900
O267        O  0.62098798  0.09766963  0.50946222    -0.72200
O268        O  0.51720817  0.09013358  0.54918781    -0.72500
O269        O  0.59313750  0.13247371  0.55314850    -0.72300
O270        O  0.54295155  0.05625272  0.50551380    -0.72300
O271        O  0.56853060  0.00153904  0.52616546    -0.72300
O272        O  0.62001981  0.07837961  0.57394046    -0.72300
O273        O  0.54407380  0.03642012  0.56955319    -0.72300
O274        O  0.64707773  0.04296972  0.52999672    -0.72400
V275        V  0.56933691  0.09307877  0.52960689     1.35200
V276        V  0.59478050  0.04085194  0.54935433     1.35200
C277        C  0.65202375  0.07167208  0.51322248     0.77000
C278        C  0.51270486  0.06192975  0.56626747     0.77000
C279        C  0.61307719  0.11846493  0.57226423     0.76900
C280        C  0.54429281  0.01600962  0.50877398     0.76900
O281        O  0.11751178  0.35154318  0.75753834    -0.72200
O282        O  0.11988147  0.25719463  0.80370614    -0.72500
O283        O  0.07730347  0.33190390  0.80133889    -0.72300
O284        O  0.15855152  0.27574016  0.76013396    -0.72300
O285        O  0.21187108  0.31134801  0.77774198    -0.72300
O286        O  0.12992318  0.35608142  0.82497480    -0.72300
O287        O  0.17745031  0.28509601  0.82123759    -0.72300
O288        O  0.16518006  0.38487710  0.78089617    -0.72400
V289        V  0.11925148  0.30487840  0.78094805     1.35200
V290        V  0.17016079  0.33425852  0.80070198     1.35200
C291        C  0.14063911  0.38481032  0.76172132     0.77000
C292        C  0.14967249  0.25493372  0.82024299     0.77000
C293        C  0.08949297  0.34901339  0.82173123     0.76900
C294        C  0.19889076  0.28292882  0.76226381     0.76900
O295        O  0.85701683  0.33122534  0.95979470    -0.72200
O296        O  0.95845126  0.33602042  0.91869580    -0.72500
O297        O  0.93721810  0.36898839  0.96299500    -0.72300
O298        O  0.88028608  0.29864550  0.91491283    -0.72300
O299        O  0.85654806  0.35537059  0.89533097    -0.72300
O300        O  0.91091951  0.42585043  0.94517412    -0.72300
O301        O  0.93447467  0.39373420  0.90023295    -0.72300
O302        O  0.83116948  0.38715879  0.94033441    -0.72400
V303        V  0.90748020  0.33494356  0.93890390     1.35200
V304        V  0.88354818  0.38962861  0.92082275     1.35200
C305        C  0.82608105  0.35738160  0.95648561     0.77000
C306        C  0.96303301  0.36466611  0.90190591     0.77000
C307        C  0.93633998  0.40955060  0.96133491     0.76900
C308        C  0.86088641  0.31489388  0.89617232     0.76900
O309        O  0.86797978  0.08184361  0.75890336    -0.72200
O310        O  0.86707457  0.18190680  0.80120132    -0.72500
O311        O  0.90743010  0.10619418  0.80205894    -0.72300
O312        O  0.82831845  0.15927877  0.75760949    -0.72300
O313        O  0.77377360  0.13176318  0.77801120    -0.72300
O314        O  0.85387944  0.08273556  0.82527471    -0.72300
O315        O  0.81073054  0.15614145  0.82074888    -0.72300
O316        O  0.81560342  0.05434521  0.78160179    -0.72400
V317        V  0.86657953  0.13161370  0.78019507     1.35200
V318        V  0.81447935  0.10616380  0.80077271     1.35200
C319        C  0.84220211  0.05056249  0.76345963     0.77000
C320        C  0.83918239  0.18546851  0.81880949     0.77000
C321        C  0.89450080  0.08990799  0.82258193     0.76900
C322        C  0.78770277  0.15756111  0.76111229     0.76900
O323        O  0.13541891  0.09997462  0.95722517    -0.72200
O324        O  0.03107034  0.10078253  0.91826980    -0.72500
O325        O  0.05546726  0.06349770  0.96143529    -0.72300
O326        O  0.10977461  0.13738227  0.91391411    -0.72300
O327        O  0.13550686  0.08233625  0.89372740    -0.72300
O328        O  0.07425409  0.00831201  0.93902153    -0.72300
O329        O  0.05529255  0.04732893  0.89591655    -0.72300
O330        O  0.15646408  0.04260343  0.93724555    -0.72400
V331        V  0.08357263  0.09930982  0.93739683     1.35200
V332        V  0.10521903  0.04607795  0.91704471     1.35200
C333        C  0.16372584  0.07111619  0.95379111     0.77000
C334        C  0.02605902  0.07485943  0.90005739     0.77000
C335        C  0.05254694  0.02358557  0.95723401     0.76900
C336        C  0.13079637  0.12270120  0.89533602     0.76900
O337        O  0.36531490  0.56184138  0.26132726    -0.72200
O338        O  0.35426244  0.66469438  0.30062820    -0.72500
O339        O  0.39741785  0.59100188  0.30582882    -0.72300
O340        O  0.32401811  0.63720302  0.25606668    -0.72300
O341        O  0.26677771  0.61335019  0.27563402    -0.72300
O342        O  0.34178232  0.56247834  0.32531492    -0.72300
O343        O  0.29874653  0.63632215  0.31999248    -0.72300
O344        O  0.30761460  0.53588861  0.27991244    -0.72400
V345        V  0.35913384  0.61287469  0.28123596     1.35200
V346        V  0.30482566  0.58691299  0.29966732     1.35200
C347        C  0.33755279  0.53149524  0.26368779     0.77000
C348        C  0.32515825  0.66737690  0.31766888     0.77000
C349        C  0.38226536  0.57204450  0.32501632     0.76900
C350        C  0.28323595  0.63726599  0.25855109     0.76900
O351        O  0.62383802  0.59027343  0.45710868    -0.72200
O352        O  0.51813545  0.58245853  0.42049068    -0.72500
O353        O  0.54530004  0.55019176  0.46379255    -0.72300
O354        O  0.59502255  0.62191966  0.41318779    -0.72300
O355        O  0.61974404  0.56544457  0.39374726    -0.72300
O356        O  0.56906140  0.49397917  0.44428449    -0.72300
O357        O  0.54219933  0.52704329  0.40003569    -0.72300
O358        O  0.64796718  0.53329981  0.43816480    -0.72400
V359        V  0.57132899  0.58502810  0.43840165     1.35200
V360        V  0.59448402  0.53084579  0.41960158     1.35200
C361        C  0.65435133  0.56376486  0.45368693     0.77000
C362        C  0.51273827  0.55492163  0.40326272     0.77000
C363        C  0.54589131  0.50962015  0.46169055     0.76900
C364        C  0.61423628  0.60571966  0.39437561     0.76900
O365        O  0.35111641  0.82040560  0.45503928    -0.72200
O366        O  0.45212925  0.82521532  0.41296690    -0.72500
O367        O  0.43012232  0.86025210  0.45705124    -0.72300
O368        O  0.37497424  0.78476798  0.41077432    -0.72300
O369        O  0.34720545  0.83924533  0.39082535    -0.72300
O370        O  0.40459421  0.91520616  0.43659231    -0.72300
O371        O  0.42502418  0.87900047  0.39279352    -0.72300
O372        O  0.32491694  0.87571080  0.43506800    -0.72400
V373        V  0.40134063  0.82370343  0.43366973     1.35200
V374        V  0.37568720  0.87627552  0.41434384     1.35200
C375        C  0.32054982  0.84716650  0.45198592     0.77000
C376        C  0.45616483  0.85305970  0.39564333     0.77000
C377        C  0.42918534  0.90052037  0.45372830     0.76900
C378        C  0.35310525  0.79902717  0.39242202     0.76900
O379        O  0.61197810  0.84017763  0.25850713    -0.72200
O380        O  0.61060519  0.74102775  0.30096920    -0.72500
O381        O  0.57633390  0.81951814  0.30346500    -0.72300
O382        O  0.64569380  0.76005684  0.25606889    -0.72300
O383        O  0.70450991  0.78375088  0.27445685    -0.72300
O384        O  0.63469956  0.84122634  0.32321892    -0.72300
O385        O  0.66974538  0.76315130  0.31893753    -0.72300
O386        O  0.66979577  0.86369936  0.27804083    -0.72400
V387        V  0.61233302  0.79085042  0.27998915     1.35200
V388        V  0.66861287  0.81283905  0.29815385     1.35200
C389        C  0.64081800  0.86925134  0.26135786     0.77000
C390        C  0.63991187  0.73490383  0.31733183     0.77000
C391        C  0.59349938  0.83807211  0.32222189     0.76900
C392        C  0.68675989  0.75977518  0.25801846     0.76900
O393        O  0.11053196  0.85711888  0.20644197    -0.72200
O394        O  0.10874618  0.75280024  0.16923876    -0.72500
O395        O  0.14075318  0.77643666  0.21348788    -0.72300
O396        O  0.07772078  0.83197210  0.16126684    -0.72300
O397        O  0.13851503  0.85250711  0.14351285    -0.72300
O398        O  0.20111890  0.79198949  0.19395696    -0.72300
O399        O  0.16788563  0.77255225  0.14953758    -0.72300
O400        O  0.17280675  0.87416925  0.18928519    -0.72400
V401        V  0.11053829  0.80533513  0.18731315     1.35200
V402        V  0.16895162  0.82292854  0.16959891     1.35200
C403        C  0.14256495  0.88298831  0.20469673     0.77000
C404        C  0.13773959  0.74514351  0.15289453     0.77000
C405        C  0.18135806  0.77112860  0.21111815     0.76900
C406        C  0.09731130  0.84944857  0.14281112     0.76900
O407        O  0.85362853  0.82895875  0.01199565    -0.72200
O408        O  0.96213806  0.83811834  0.04796787    -0.72500
O409        O  0.88758443  0.79254908  0.05349782    -0.72300
O410        O  0.92899381  0.87263414  0.00588462    -0.72300
O411        O  0.90851383  0.92536434  0.02966456    -0.72300
O412        O  0.85826053  0.84345370  0.07571132    -0.72300
O413        O  0.93348482  0.88652341  0.07176580    -0.72300
O414        O  0.82960328  0.88341850  0.03335283    -0.72400
V415        V  0.90737396  0.83398246  0.03023261     1.35200
V416        V  0.88246622  0.88381038  0.05200358     1.35200
C417        C  0.82315658  0.85532657  0.01648788     0.77000
C418        C  0.96627495  0.86421145  0.06632305     0.77000
C419        C  0.86787563  0.80400971  0.07320821     0.76900
C420        C  0.93029974  0.91220488  0.01080741     0.76900
O421        O  0.14155137  0.59046445  0.01409162    -0.72200
O422        O  0.03794738  0.57972455  0.05413819    -0.72500
O423        O  0.11266765  0.62477294  0.05771510    -0.72300
O424        O  0.06485123  0.54703067  0.01093674    -0.72300
O425        O  0.09820264  0.49392073  0.02888899    -0.72300
O426        O  0.13529108  0.57151455  0.08081767    -0.72300
O427        O  0.06442804  0.52286428  0.07180209    -0.72300
O428        O  0.17158373  0.54148910  0.03748927    -0.72400
V429        V  0.09012953  0.58458250  0.03449665     1.35200
V430        V  0.11735988  0.53345521  0.05426892     1.35200
C431        C  0.17460026  0.56772504  0.01925983     0.77000
C432        C  0.03319532  0.54881032  0.06964777     0.77000
C433        C  0.12782718  0.61144308  0.07838167     0.76900
C434        C  0.07109785  0.50708665  0.01257988     0.76900
O435        O  0.86777977  0.55802488  0.20186091    -0.72200
O436        O  0.87084126  0.66070628  0.16299014    -0.72500
O437        O  0.83286467  0.63748461  0.20589644    -0.72300
O438        O  0.90630054  0.58300454  0.15860313    -0.72300
O439        O  0.84990434  0.55900615  0.13792355    -0.72300
O440        O  0.77594203  0.61808542  0.18406843    -0.72300
O441        O  0.81550530  0.63795687  0.14086545    -0.72300
O442        O  0.80932508  0.53745788  0.18205375    -0.72400
V443        V  0.86826621  0.60911350  0.18201108     1.35200
V444        V  0.81366460  0.58816643  0.16174807     1.35200
C445        C  0.83777076  0.53023161  0.19885388     0.77000
C446        C  0.84428138  0.66644387  0.14506684     0.77000
C447        C  0.79236393  0.63995494  0.20190419     0.76900
C448        C  0.89098942  0.56327734  0.13970312     0.76900
C449        C  0.95266242  0.56133093  0.07773743    -0.02300
C450        C  0.99320039  0.54429192  0.08581353     0.07400
C451        C  0.99565835  0.52522423  0.11024624    -0.02400
C452        C  0.95971703  0.52712448  0.12683545    -0.02400
C453        C  0.92148673  0.54881174  0.11974077     0.07500
C454        C  0.91723171  0.56410554  0.09474679    -0.02600
Br455      Br  0.86434613  0.59260884  0.08428678    -0.01200
Br456      Br  0.94466886  0.58088835  0.04335022    -0.01200
Br457      Br  0.96274860  0.50057688  0.15988896    -0.01200
Br458      Br  0.04859277  0.49909089  0.12279364    -0.01200
C459        C  0.89025871  0.71041274  0.11658477    -0.02300
C460        C  0.84952027  0.70384309  0.12822963     0.07400
C461        C  0.81470426  0.73212390  0.12315973    -0.02400
C462        C  0.82023995  0.76578703  0.10540304    -0.02400
C463        C  0.86098482  0.77170659  0.09336603     0.07500
C464        C  0.89629753  0.74465610  0.09973362    -0.02600
Br465      Br  0.95412717  0.75452034  0.08613977    -0.01200
Br466      Br  0.93755123  0.67071675  0.12243307    -0.01200
Br467      Br  0.77160287  0.80190258  0.09662357    -0.01200
Br468      Br  0.76024483  0.72571021  0.14118367    -0.01200
C469        C  0.07570795  0.83756560  0.09784315    -0.02300
C470        C  0.07215362  0.86197979  0.12016460     0.07400
C471        C  0.04010904  0.89376094  0.12187475    -0.02400
C472        C  0.00893713  0.89829935  0.10250158    -0.02400
C473        C  0.00687305  0.86779311  0.08232017     0.07500
C474        C  0.04272095  0.83943380  0.07924185    -0.02600
Br475      Br  0.04813696  0.80232977  0.05014225    -0.01200
Br476      Br  0.12513352  0.80014598  0.09316953    -0.01200
Br477      Br  0.97154537  0.94828616  0.10390680    -0.01200
Br478      Br  0.03964117  0.93129104  0.15096235    -0.01200
C479        C  0.16995929  0.64904085  0.11299768    -0.02300
C480        C  0.13075367  0.64184210  0.09970916     0.07400
C481        C  0.09306390  0.66552863  0.10609843    -0.02400
C482        C  0.09497683  0.69767929  0.12452622    -0.02400
C483        C  0.13472959  0.70671924  0.13676290     0.07500
C484        C  0.17190425  0.68144908  0.13164983    -0.02600
Br485      Br  0.22494224  0.69040900  0.15070733    -0.01200
Br486      Br  0.22144863  0.61679834  0.10450534    -0.01200
Br487      Br  0.04334941  0.73148861  0.13133244    -0.01200
Br488      Br  0.03793228  0.65499606  0.08960747    -0.01200
C489        C  0.77822792  0.71422283  0.21803650    -0.02300
C490        C  0.76558770  0.67028422  0.21652342     0.07400
C491        C  0.72655445  0.65621451  0.22795093    -0.02400
C492        C  0.70055493  0.68566333  0.24122009    -0.02400
C493        C  0.71301597  0.72969021  0.24273440     0.07500
C494        C  0.75184333  0.74384567  0.23095882    -0.02600
Br495      Br  0.76793569  0.80424304  0.23139454    -0.01200
Br496      Br  0.83070448  0.73488777  0.20149656    -0.01200
Br497      Br  0.64952778  0.66417679  0.25866176    -0.01200
Br498      Br  0.70990546  0.59596985  0.22661202    -0.01200
C499        C  0.49766225  0.88373156  0.35768985    -0.02300
C500        C  0.49568078  0.85490004  0.37877225     0.07400
C501        C  0.53177330  0.82698345  0.38293448    -0.02400
C502        C  0.56732764  0.82722630  0.36607908    -0.02400
C503        C  0.56540792  0.85091738  0.34347819     0.07500
C504        C  0.53112754  0.87980048  0.33955480    -0.02600
Br505      Br  0.53027721  0.91367781  0.30888052    -0.01200
Br506      Br  0.45577249  0.92927112  0.35235113    -0.01200
Br507      Br  0.61802848  0.79288576  0.37341341    -0.01200
Br508      Br  0.53372282  0.78541561  0.41030623    -0.01200
C509        C  0.60280995  0.63076964  0.35037832    -0.02300
C510        C  0.62685587  0.63324321  0.37290783     0.07400
C511        C  0.65940571  0.66486667  0.37571836    -0.02400
C512        C  0.66742826  0.69476481  0.35617314    -0.02400
C513        C  0.63847787  0.69703963  0.33505753     0.07500
C514        C  0.60629476  0.66382170  0.33224338    -0.02600
Br515      Br  0.56444562  0.66251857  0.30481671    -0.01200
Br516      Br  0.56375757  0.58245225  0.34466829    -0.01200
Br517      Br  0.71869735  0.73136838  0.35961867    -0.01200
Br518      Br  0.69271735  0.66703547  0.40670654    -0.01200
C519        C  0.21147708  0.66322295  0.24060351    -0.02300
C520        C  0.25685694  0.66922602  0.24417679     0.07400
C521        C  0.27623315  0.70930274  0.23697618    -0.02400
C522        C  0.24993011  0.74425465  0.23027472    -0.02400
C523        C  0.20506366  0.73804580  0.22584471     0.07500
C524        C  0.18590045  0.69699652  0.23074091    -0.02600
Br525      Br  0.12533585  0.68511686  0.22271965    -0.01200
Br526      Br  0.18486256  0.60729250  0.24640157    -0.01200
Br527      Br  0.27555176  0.80155734  0.22843342    -0.01200
Br528      Br  0.33876648  0.71752490  0.23347396    -0.01200
C529        C  0.43352816  0.60350470  0.35678086    -0.02300
C530        C  0.41132788  0.56671702  0.34726468     0.07400
C531        C  0.41982370  0.52609539  0.35803054    -0.02400
C532        C  0.45226212  0.52185244  0.37682927    -0.02400
C533        C  0.47504884  0.55858190  0.38580850     0.07500
C534        C  0.46410444  0.59972654  0.37633733    -0.02600
Br535      Br  0.49331143  0.65180245  0.38821489    -0.01200
Br536      Br  0.42406544  0.66014370  0.34283864    -0.01200
Br537      Br  0.46476138  0.46564151  0.39034925    -0.01200
Br538      Br  0.38910121  0.47587272  0.34618802    -0.01200
C539        C  0.33910809  0.74545523  0.32871028    -0.02300
C540        C  0.32411187  0.70398637  0.33592482     0.07400
C541        C  0.31246290  0.69660277  0.36160773    -0.02400
C542        C  0.31814216  0.72947579  0.37963427    -0.02400
C543        C  0.33758678  0.76904446  0.37266870     0.07500
C544        C  0.34758016  0.77715591  0.34707811    -0.02600
Br545      Br  0.37797349  0.82947663  0.33722511    -0.01200
Br546      Br  0.34751792  0.76002341  0.29370499    -0.01200
Br547      Br  0.30014104  0.71989102  0.41426411    -0.01200
Br548      Br  0.29269857  0.64070793  0.37359590    -0.01200
C549        C  0.00172748  0.92483775  0.98824953    -0.02300
C550        C  0.96052209  0.94078454  0.99629474     0.07400
C551        C  0.95031616  0.98433795  0.99176625    -0.02400
C552        C  0.98065786  0.01169490  0.97951211    -0.02400
C553        C  0.02210042  0.99592371  0.97203688     0.07500
C554        C  0.03247910  0.95247611  0.97671729    -0.02600
Br555      Br  0.08996868  0.93064925  0.96855800    -0.01200
Br556      Br  0.01832910  0.86523832  0.99312459    -0.01200
Br557      Br  0.96316371  0.07008779  0.97180577    -0.01200
Br558      Br  0.89351564  0.00630876  0.00066419    -0.01200
C559        C  0.95593786  0.11985055  0.84835530    -0.02300
C560        C  0.92621450  0.08536308  0.84363609     0.07400
C561        C  0.92697296  0.04862047  0.85943970    -0.02400
C562        C  0.95884415  0.04542132  0.87866356    -0.02400
C563        C  0.98921007  0.07926730  0.88244507     0.07500
C564        C  0.98688507  0.11681650  0.86772583    -0.02600
Br565      Br  0.02756204  0.16395922  0.87340534    -0.01200
Br566      Br  0.95471329  0.17284403  0.82913552    -0.01200
Br567      Br  0.96042624  0.99544027  0.90037389    -0.01200
Br568      Br  0.88589062  0.00202951  0.85424947    -0.01200
C569        C  0.98563653  0.47477467  0.96524382    -0.02300
C570        C  0.96838409  0.43621075  0.97587133     0.07400
C571        C  0.98771243  0.41958945  0.99816624    -0.02400
C572        C  0.02411897  0.44041911  0.00918277    -0.02400
C573        C  0.04228873  0.47781230  0.99781223     0.07500
C574        C  0.02403796  0.49335100  0.97508718    -0.02600
Br575      Br  0.05274706  0.53950739  0.95651332    -0.01200
Br576      Br  0.95644242  0.50512849  0.93817477    -0.01200
Br577      Br  0.04714144  0.41790942  0.04055578    -0.01200
Br578      Br  0.96227907  0.37038929  0.01548678    -0.01200
C579        C  0.82614565  0.24720160  0.88081578    -0.02300
C580        C  0.84703787  0.28655364  0.87518292     0.07400
C581        C  0.86224749  0.29455523  0.85042383    -0.02400
C582        C  0.85966226  0.26197077  0.83189897    -0.02400
C583        C  0.84038352  0.22134921  0.83771893     0.07500
C584        C  0.82322016  0.21453787  0.86248751    -0.02600
Br585      Br  0.79960422  0.15936381  0.87342741    -0.01200
Br586      Br  0.80168824  0.23801759  0.91419083    -0.01200
Br587      Br  0.88484015  0.27373160  0.79913194    -0.01200
Br588      Br  0.89001258  0.34910171  0.84216114    -0.01200
C589        C  0.02962665  0.31945167  0.84857917    -0.02300
C590        C  0.05752466  0.35455708  0.84233490     0.07400
C591        C  0.05625799  0.39250703  0.85688580    -0.02400
C592        C  0.02603975  0.39591799  0.87690704    -0.02400
C593        C  0.99800550  0.36095976  0.88286868     0.07500
C594        C  0.00108984  0.32221242  0.86916148    -0.02600
Br595      Br  0.96580067  0.27223185  0.87803623    -0.01200
Br596      Br  0.03012855  0.26623316  0.82960117    -0.01200
Br597      Br  0.02517591  0.44736350  0.89705657    -0.01200
Br598      Br  0.09448502  0.44037847  0.84875895    -0.01200
C599        C  0.16194170  0.22757178  0.86425872    -0.02300
C600        C  0.15126346  0.21903896  0.83871887     0.07400
C601        C  0.14104164  0.17641350  0.83129606    -0.02400
C602        C  0.13755657  0.14345535  0.84956815    -0.02400
C603        C  0.14587853  0.15268450  0.87529870     0.07500
C604        C  0.16078198  0.19415394  0.88218572    -0.02600
Br605      Br  0.17961956  0.20545574  0.91644386    -0.01200
Br606      Br  0.17359291  0.28565664  0.87594134    -0.01200
Br607      Br  0.11746714  0.08695743  0.83916687    -0.01200
Br608      Br  0.13176886  0.16272437  0.79607989    -0.01200
C609        C  0.44221760  0.96835311  0.47830518    -0.02300
C610        C  0.45826056  0.92949350  0.46843393     0.07400
C611        C  0.50308982  0.91956638  0.47133060    -0.02400
C612        C  0.53146135  0.94818186  0.48402040    -0.02400
C613        C  0.51541489  0.98700551  0.49393321     0.07500
C614        C  0.47057444  0.99697799  0.49097275    -0.02600
Br615      Br  0.44640384  0.04867188  0.50531385    -0.01200
Br616      Br  0.38069455  0.98149798  0.47571165    -0.01200
Br617      Br  0.59298519  0.93521176  0.48650619    -0.01200
Br618      Br  0.52711726  0.86804346  0.45677287    -0.01200
C619        C  0.25799594  0.22863366  0.76167816    -0.02300
C620        C  0.22880211  0.25510307  0.74830232     0.07400
C621        C  0.22004026  0.24697522  0.72270150    -0.02400
C622        C  0.23802718  0.21086532  0.71082730    -0.02400
C623        C  0.26655361  0.18343981  0.72430064     0.07500
C624        C  0.27693602  0.19299252  0.74965652    -0.02600
Br625      Br  0.31476116  0.15572406  0.76863631    -0.01200
Br626      Br  0.27010172  0.23927789  0.79694111    -0.01200
Br627      Br  0.22338840  0.20061331  0.67590823    -0.01200
Br628      Br  0.18365311  0.28631283  0.70382873    -0.01200
C629        C  0.43890739  0.03426916  0.62243400    -0.02300
C630        C  0.40703397  0.06618818  0.62033003     0.07400
C631        C  0.40571562  0.09246587  0.59871749    -0.02400
C632        C  0.43892884  0.09033836  0.58040436    -0.02400
C633        C  0.47314336  0.05979935  0.58302584     0.07500
C634        C  0.47049384  0.02942603  0.60330844    -0.02600
Br635      Br  0.50888867  0.98032524  0.60606024    -0.01200
Br636      Br  0.44004976  0.99847873  0.65235632    -0.01200
Br637      Br  0.43648252  0.13154802  0.55287715    -0.01200
Br638      Br  0.36012187  0.13448364  0.59522486    -0.01200
C639        C  0.46471783  0.47566575  0.51281565    -0.02300
C640        C  0.44487024  0.43900331  0.50157045     0.07400
C641        C  0.46241597  0.42287856  0.47879101    -0.02400
C642        C  0.49911328  0.44273084  0.46751191    -0.02400
C643        C  0.51615492  0.48196219  0.47736432     0.07500
C644        C  0.49942838  0.49742159  0.50057003    -0.02600
Br645      Br  0.52598765  0.54661409  0.51716772    -0.01200
Br646      Br  0.44745361  0.49495148  0.54610274    -0.01200
Br647      Br  0.52595800  0.41370213  0.43915725    -0.01200
Br648      Br  0.43552569  0.37413785  0.46196826    -0.01200
C649        C  0.34603390  0.29428107  0.62770741    -0.02300
C650        C  0.32420399  0.29276372  0.60435940     0.07400
C651        C  0.29592339  0.25806913  0.59909221    -0.02400
C652        C  0.29364279  0.22232418  0.61552560    -0.02400
C653        C  0.32132890  0.22056134  0.63715086     0.07500
C654        C  0.34408634  0.25870775  0.64428990    -0.02600
Br655      Br  0.37107019  0.26415585  0.67717718    -0.01200
Br656      Br  0.38153845  0.34371524  0.63616030    -0.01200
Br657      Br  0.25236301  0.17688993  0.60721985    -0.01200
Br658      Br  0.26129582  0.25951918  0.56859742    -0.01200
C659        C  0.68520170  0.20842871  0.73220722    -0.02300
C660        C  0.70195772  0.24830611  0.72286053     0.07400
C661        C  0.74633406  0.25856412  0.72710211    -0.02400
C662        C  0.77456349  0.22811246  0.73802610    -0.02400
C663        C  0.75810075  0.18778750  0.74716688     0.07500
C664        C  0.71283667  0.17894964  0.74466169    -0.02600
Br665      Br  0.68748174  0.12572490  0.75736356    -0.01200
Br666      Br  0.62446674  0.19221210  0.72788001    -0.01200
Br667      Br  0.83576930  0.24418063  0.74023192    -0.01200
Br668      Br  0.76861980  0.31611057  0.71994875    -0.01200
C669        C  0.52071744  0.36644146  0.58173062    -0.02300
C670        C  0.48117970  0.38471828  0.59012238     0.07400
C671        C  0.48061244  0.40641291  0.61365877    -0.02400
C672        C  0.51503371  0.40022615  0.63083236    -0.02400
C673        C  0.55133475  0.37535554  0.62385054     0.07500
C674        C  0.55562330  0.36143826  0.59866936    -0.02600
Br675      Br  0.60730170  0.33184167  0.58778556    -0.01200
Br676      Br  0.52821811  0.35022520  0.54673277    -0.01200
Br677      Br  0.51187463  0.42458972  0.66431066    -0.01200
Br678      Br  0.43404696  0.44505875  0.62289659    -0.01200
C679        C  0.65616290  0.21714229  0.60628594    -0.02300
C680        C  0.63117468  0.21570562  0.62908428     0.07400
C681        C  0.60602943  0.17790019  0.63428934    -0.02400
C682        C  0.60300592  0.14459139  0.61630487    -0.02400
C683        C  0.62437145  0.14850076  0.59286162     0.07500
C684        C  0.65131927  0.18441675  0.58803278    -0.02600
Br685      Br  0.68094272  0.18893975  0.55582445    -0.01200
Br686      Br  0.69786966  0.26274868  0.59881929    -0.01200
Br687      Br  0.56632909  0.09485043  0.62310908    -0.01200
Br688      Br  0.57562095  0.16960632  0.66600245    -0.01200
C689        C  0.73394042  0.07747495  0.51109004    -0.02300
C690        C  0.69339047  0.07441890  0.49851308     0.07400
C691        C  0.69269556  0.07243291  0.47195150    -0.02400
C692        C  0.73218176  0.07089406  0.45816726    -0.02400
C693        C  0.77316977  0.07281954  0.47067275     0.07500
C694        C  0.77348367  0.07768567  0.49726652    -0.02600
Br695      Br  0.82765953  0.08346320  0.51537958    -0.01200
Br696      Br  0.73538080  0.08221836  0.54748423    -0.01200
Br697      Br  0.72903879  0.06744509  0.42190985    -0.01200
Br698      Br  0.63738577  0.06988368  0.45436995    -0.01200
C699        C  0.15236859  0.00060806  0.22464521    -0.02300
C700        C  0.14579441  0.99739459  0.25095608     0.07400
C701        C  0.13985834  0.95647451  0.26216275    -0.02400
C702        C  0.13894510  0.91910640  0.24704241    -0.02400
C703        C  0.14470487  0.92231535  0.22060255     0.07500
C704        C  0.15227044  0.96319287  0.20953641    -0.02600
Br705      Br  0.16098710  0.96842391  0.17352807    -0.01200
Br706      Br  0.16287349  0.05633114  0.20938597    -0.01200
Br707      Br  0.13154171  0.86333032  0.26288239    -0.01200
Br708      Br  0.13154284  0.95165049  0.29823997    -0.01200
C709        C  0.98200463  0.03690071  0.35720831    -0.02300
C710        C  0.98880193  0.05198119  0.38226731     0.07400
C711        C  0.03146664  0.06479763  0.38953431    -0.02400
C712        C  0.06559972  0.06652945  0.37153876    -0.02400
C713        C  0.05783148  0.05423382  0.34617153     0.07500
C714        C  0.01660712  0.03709614  0.33961084    -0.02600
Br715      Br  0.00756294  0.01358852  0.30616644    -0.01200
Br716      Br  0.92476368  0.01916952  0.34539522    -0.01200
Br717      Br  0.12179824  0.08960347  0.38159477    -0.01200
Br718      Br  0.04399954  0.07964103  0.42424578    -0.01200
C719        C  0.18407502  0.35831668  0.50075277    -0.02300
C720        C  0.18805600  0.35078365  0.47461553     0.07400
C721        C  0.22980668  0.34433506  0.46411386    -0.02400
C722        C  0.26737156  0.34579685  0.47941971    -0.02400
C723        C  0.26374043  0.35397445  0.50558408     0.07500
C724        C  0.22165838  0.35990446  0.51620194    -0.02600
Br725      Br  0.21464348  0.36952367  0.55201626    -0.01200
Br726      Br  0.12725653  0.36940947  0.51512841    -0.01200
Br727      Br  0.32381043  0.33940584  0.46369489    -0.01200
Br728      Br  0.23585416  0.33307539  0.42855357    -0.01200
C729        C  0.08551426  0.24176934  0.37130140    -0.02300
C730        C  0.12027970  0.27079423  0.37683141     0.07400
C731        C  0.15914025  0.26870582  0.36250800    -0.02400
C732        C  0.16467607  0.23535348  0.34472497    -0.02400
C733        C  0.13022987  0.20605974  0.33990218     0.07500
C734        C  0.09031652  0.21004682  0.35275604    -0.02600
Br735      Br  0.04232018  0.17065203  0.34592851    -0.01200
Br736      Br  0.02961694  0.24577335  0.38800802    -0.01200
Br737      Br  0.21921812  0.22999432  0.32671045    -0.01200
Br738      Br  0.20472856  0.31106321  0.36672743    -0.01200
C739        C  0.84833598  0.49178088  0.24049540    -0.02300
C740        C  0.83628524  0.49026810  0.21463595     0.07400
C741        C  0.82350196  0.45014419  0.20400985    -0.02400
C742        C  0.82298598  0.41244531  0.21899024    -0.02400
C743        C  0.83634350  0.41404463  0.24440266     0.07500
C744        C  0.84880805  0.45375606  0.25512957    -0.02600
Br745      Br  0.86752552  0.45572378  0.28996384    -0.01200
Br746      Br  0.86218690  0.54593967  0.25677116    -0.01200
Br747      Br  0.80222582  0.35864752  0.20503556    -0.01200
Br748      Br  0.80867827  0.44542128  0.16863462    -0.01200
C749        C  0.93919282  0.35199447  0.38541482    -0.02300
C750        C  0.98327450  0.36045742  0.37916386     0.07400
C751        C  0.99441853  0.36966577  0.35371441    -0.02400
C752        C  0.96200577  0.37011758  0.33491760    -0.02400
C753        C  0.91859734  0.35796290  0.34076416     0.07500
C754        C  0.90699842  0.35046231  0.36636819    -0.02600
Br755      Br  0.84783849  0.33507515  0.37591280    -0.01200
Br756      Br  0.92233938  0.34199414  0.42005717    -0.01200
Br757      Br  0.97754838  0.38812140  0.30101391    -0.01200
Br758      Br  0.05476852  0.37695583  0.34337490    -0.01200
C759        C  0.88731165  0.17417624  0.36962225    -0.02300
C760        C  0.85217586  0.14518864  0.37460143     0.07400
C761        C  0.81542146  0.14539977  0.35854689    -0.02400
C762        C  0.81272443  0.17590237  0.33883529    -0.02400
C763        C  0.84667844  0.20615861  0.33496823     0.07500
C764        C  0.88463151  0.20417927  0.34983600    -0.02600
Br765      Br  0.93317873  0.24310978  0.34347653    -0.01200
Br766      Br  0.94078249  0.17253640  0.38894752    -0.01200
Br767      Br  0.76389159  0.17436936  0.31602864    -0.01200
Br768      Br  0.76801822  0.10524675  0.36366708    -0.01200
C769        C  0.20276051  0.05835595  0.99439697    -0.02300
C770        C  0.20433563  0.07054758  0.96887468     0.07400
C771        C  0.24460449  0.08195429  0.95776479    -0.02400
C772        C  0.28359112  0.08029320  0.97199116    -0.02400
C773        C  0.28260935  0.06694130  0.99767394     0.07500
C774        C  0.24141224  0.05667940  0.00881513    -0.02600
Br775      Br  0.23599930  0.04173320  0.04414531    -0.01200
Br776      Br  0.14715315  0.04261281  0.00932610    -0.01200
Br777      Br  0.33782922  0.09498960  0.95531673    -0.01200
Br778      Br  0.24596227  0.10052557  0.92291710    -0.01200
C779        C  0.64215805  0.94997858  0.25751410    -0.02300
C780        C  0.64044010  0.90912437  0.24579307     0.07400
C781        C  0.63850771  0.90662012  0.21919631    -0.02400
C782        C  0.63803419  0.94460401  0.20448091    -0.02400
C783        C  0.64001440  0.98551059  0.21619609     0.07500
C784        C  0.64217929  0.98790461  0.24277977    -0.02600
Br785      Br  0.64792914  0.04300817  0.25917273    -0.01200
Br786      Br  0.64329126  0.95439545  0.29391874    -0.01200
Br787      Br  0.63340981  0.94029645  0.16818062    -0.01200
Br788      Br  0.63915142  0.85109762  0.20272558    -0.01200
C789        C  0.70137763  0.18356261  0.24110702    -0.02300
C790        C  0.71749782  0.16660169  0.21815699     0.07400
C791        C  0.75531375  0.18532816  0.20714011    -0.02400
C792        C  0.77823558  0.21844169  0.21971660    -0.02400
C793        C  0.76248999  0.23500898  0.24292669     0.07500
C794        C  0.72249092  0.21873272  0.25279919    -0.02600
Br795      Br  0.69470772  0.24402483  0.28211765    -0.01200
Br796      Br  0.65080227  0.15817716  0.25754513    -0.01200
Br797      Br  0.82994948  0.24237172  0.20360979    -0.01200
Br798      Br  0.77452461  0.16893487  0.17362923    -0.01200
C799        C  0.52657931  0.02331449  0.12682013    -0.02300
C800        C  0.56782985  0.03936958  0.11943432     0.07400
C801        C  0.57551120  0.04901759  0.09371049    -0.02400
C802        C  0.54071257  0.04735701  0.07627510    -0.02400
C803        C  0.49767004  0.03895222  0.08479031     0.07500
C804        C  0.49107566  0.02526188  0.11012234    -0.02600
Br805      Br  0.43344674  0.01315754  0.12366882    -0.01200
Br806      Br  0.51868983  0.99907719  0.16027581    -0.01200
Br807      Br  0.55263325  0.05539498  0.04071061    -0.01200
Br808      Br  0.63254729  0.06722520  0.08225153    -0.01200
C809        C  0.34238891  0.45741647  0.20608545    -0.02300
C810        C  0.33964703  0.41626845  0.21745880     0.07400
C811        C  0.33618323  0.41303165  0.24392280    -0.02400
C812        C  0.33477465  0.45053383  0.25889440    -0.02400
C813        C  0.33928755  0.49186043  0.24774469     0.07500
C814        C  0.34318687  0.49500577  0.22116331    -0.02600
Br815      Br  0.34712122  0.55082833  0.20505001    -0.01200
Br816      Br  0.34561419  0.46234669  0.16977853    -0.01200
Br817      Br  0.32663225  0.44439752  0.29477514    -0.01200
Br818      Br  0.33167137  0.35690008  0.25971254    -0.01200
C819        C  0.20683036  0.22090319  0.24840166    -0.02300
C820        C  0.21855200  0.17694543  0.25039744     0.07400
C821        C  0.25726998  0.16262933  0.23885398    -0.02400
C822        C  0.28343655  0.19167199  0.22483456    -0.02400
C823        C  0.27159362  0.23557360  0.22277872     0.07500
C824        C  0.23351417  0.25010281  0.23487915    -0.02600
Br825      Br  0.21901214  0.31060227  0.23401296    -0.01200
Br826      Br  0.15507084  0.24221150  0.26498486    -0.01200
Br827      Br  0.33391148  0.17010238  0.20709558    -0.01200
Br828      Br  0.27329904  0.10263453  0.24101485    -0.01200
C829        C  0.39323960  0.19817443  0.11819198    -0.02300
C830        C  0.35277881  0.20427426  0.13035399     0.07400
C831        C  0.31695450  0.17715629  0.12438603    -0.02400
C832        C  0.32111563  0.14508807  0.10566253    -0.02400
C833        C  0.36120390  0.13985041  0.09292489     0.07500
C834        C  0.39752699  0.16603515  0.09975989    -0.02600
Br835      Br  0.45445069  0.15798774  0.08456587    -0.01200
Br836      Br  0.44282501  0.23548776  0.12538754    -0.01200
Br837      Br  0.27117138  0.11028212  0.09665356    -0.01200
Br838      Br  0.26246641  0.18307940  0.14240317    -0.01200
C839        C  0.74569903  0.34580362  0.01098157    -0.02300
C840        C  0.70527314  0.34186741  0.99816303     0.07400
C841        C  0.70530005  0.34009692  0.97148686    -0.02400
C842        C  0.74455585  0.34661826  0.95786030    -0.02400
C843        C  0.78455909  0.35234250  0.97077761     0.07500
C844        C  0.78501207  0.35084481  0.99737131    -0.02600
Br845      Br  0.83937816  0.35810634  0.01536428    -0.01200
Br846      Br  0.74796149  0.34203360  0.04741233    -0.01200
Br847      Br  0.74344007  0.34719063  0.92136258    -0.01200
Br848      Br  0.65209214  0.32846165  0.95331521    -0.01200
C849        C  0.62399364  0.27055046  0.11724830    -0.02300
C850        C  0.64280841  0.26767375  0.09303460     0.07400
C851        C  0.66898338  0.23210598  0.08701718    -0.02400
C852        C  0.67438098  0.19829978  0.10455462    -0.02400
C853        C  0.65093206  0.19849639  0.12778295     0.07500
C854        C  0.62790593  0.23626655  0.13456526    -0.02600
Br855      Br  0.60251755  0.24283398  0.16783844    -0.01200
Br856      Br  0.58948680  0.31998007  0.12611104    -0.01200
Br857      Br  0.71411635  0.15257983  0.09575668    -0.01200
Br858      Br  0.69661923  0.22937631  0.05422084    -0.01200
C859        C  0.44843490  0.33953755  0.07914562    -0.02300
C860        C  0.48856773  0.36021942  0.08540160     0.07400
C861        C  0.49023739  0.38586128  0.10776407    -0.02400
C862        C  0.45563013  0.38411351  0.12527444    -0.02400
C863        C  0.41867213  0.35837731  0.12048448     0.07500
C864        C  0.41367283  0.33878334  0.09664249    -0.02600
Br865      Br  0.36022885  0.30829747  0.08838296    -0.01200
Br866      Br  0.43925539  0.31318525  0.04645236    -0.01200
Br867      Br  0.45823202  0.41717936  0.15617557    -0.01200
Br868      Br  0.53885024  0.42390961  0.11575176    -0.01200
C869        C  0.72112874  0.89111198  0.98100256    -0.02300
C870        C  0.70122544  0.85119295  0.97460819     0.07400
C871        C  0.71950261  0.81274153  0.98430974    -0.02400
C872        C  0.75898720  0.81411244  0.99819538    -0.02400
C873        C  0.78083405  0.85377785  0.00249296     0.07500
C874        C  0.76096284  0.89234986  0.99431659    -0.02600
Br875      Br  0.78868067  0.94763082  0.00023065    -0.01200
Br876      Br  0.69246598  0.94503169  0.97334317    -0.01200
Br877      Br  0.78165327  0.76158267  0.01264323    -0.01200
Br878      Br  0.69113454  0.75772539  0.97903122    -0.01200
C879        C  0.51707412  0.91999475  0.99646553    -0.02300
C880        C  0.52263332  0.92586053  0.97026791     0.07400
C881        C  0.49418442  0.95327677  0.95691404    -0.02400
C882        C  0.46083153  0.97511153  0.96974105    -0.02400
C883        C  0.45557540  0.96990707  0.99601689     0.07500
C884        C  0.48390383  0.94219814  0.00937687    -0.02600
Br885      Br  0.48021467  0.93708742  0.04566749    -0.01200
Br886      Br  0.55670646  0.88342997  0.01489496    -0.01200
Br887      Br  0.42183266  0.01190371  0.95110258    -0.01200
Br888      Br  0.49938839  0.96007879  0.92077559    -0.01200
C889        C  0.33639857  0.92211482  0.72259029    -0.02300
C890        C  0.34434851  0.92344658  0.74879431     0.07400
C891        C  0.35298522  0.96357549  0.76036160    -0.02400
C892        C  0.35464674  0.00183346  0.74578455    -0.02400
C893        C  0.34526051  0.00083798  0.71959201     0.07500
C894        C  0.33666952  0.96040968  0.70807911    -0.02600
Br895      Br  0.32738855  0.95648942  0.67204682    -0.01200
Br896      Br  0.32242063  0.86782909  0.70675336    -0.01200
Br897      Br  0.36929515  0.05537707  0.76223339    -0.01200
Br898      Br  0.36240763  0.96625792  0.79638842    -0.01200
C899        C  0.41984486  0.84157994  0.86822220    -0.02300
C900        C  0.42542241  0.85998481  0.84400564     0.07400
C901        C  0.46356639  0.88373503  0.83853001    -0.02400
C902        C  0.49754106  0.88642363  0.85634323    -0.02400
C903        C  0.49472125  0.86271976  0.87934640     0.07500
C904        C  0.45424794  0.84308087  0.88587350    -0.02600
Br905      Br  0.44400842  0.82033001  0.91945668    -0.01200
Br906      Br  0.36651161  0.81103630  0.87683397    -0.01200
Br907      Br  0.54660342  0.92372738  0.84832712    -0.01200
Br908      Br  0.46946025  0.91216698  0.80613402    -0.01200
C909        C  0.23573687  0.60988880  0.99786450    -0.02300
C910        C  0.21563257  0.56999689  0.00409780     0.07400
C911        C  0.23582927  0.53132406  0.99651220    -0.02400
C912        C  0.27584262  0.53241225  0.98343279    -0.02400
C913        C  0.29504277  0.57217248  0.97615722     0.07500
C914        C  0.27524060  0.61098099  0.98389200    -0.02600
Br915      Br  0.30137922  0.66573203  0.97490115    -0.01200
Br916      Br  0.20977853  0.66317153  0.00879612    -0.01200
Br917      Br  0.30554470  0.47871793  0.97688150    -0.01200
Br918      Br  0.20718576  0.47623011  0.00204792    -0.01200
C919        C  0.46810843  0.48248010  0.99851780    -0.02300
C920        C  0.46122437  0.47778386  0.97237031     0.07400
C921        C  0.48546281  0.44704518  0.95872673    -0.02400
C922        C  0.51669317  0.42158627  0.97114927    -0.02400
C923        C  0.52488580  0.42739361  0.99716286     0.07500
C924        C  0.49966233  0.45738921  0.01089495    -0.02600
Br925      Br  0.50554784  0.46255914  0.04707142    -0.01200
Br926      Br  0.43313941  0.52254337  0.01760243    -0.01200
Br927      Br  0.54904217  0.37976450  0.95204425    -0.01200
Br928      Br  0.47869882  0.44170417  0.92256004    -0.01200
C929        C  0.40132010  0.67325227  0.86676046    -0.02300
C930        C  0.36499178  0.65129089  0.87733887     0.07400
C931        C  0.32300368  0.65875810  0.86756457    -0.02400
C932        C  0.31723420  0.68855621  0.84764268    -0.02400
C933        C  0.35340820  0.71173625  0.83761363     0.07500
C934        C  0.39563428  0.70350687  0.84726136    -0.02600
Br935      Br  0.44641013  0.73532936  0.83530309    -0.01200
Br936      Br  0.45988214  0.66146567  0.87829816    -0.01200
Br937      Br  0.25981511  0.69578925  0.83362093    -0.01200
Br938      Br  0.27316198  0.62979803  0.88244149    -0.01200
C939        C  0.62437867  0.46646842  0.70742218    -0.02300
C940        C  0.62366704  0.42578082  0.71948283     0.07400
C941        C  0.62297502  0.42368879  0.74609577    -0.02400
C942        C  0.62574329  0.46188420  0.76049124    -0.02400
C943        C  0.62761164  0.50260388  0.74839168     0.07500
C944        C  0.62561899  0.50465001  0.72182010    -0.02600
Br945      Br  0.62692644  0.55965073  0.70489299    -0.01200
Br946      Br  0.62307718  0.47024129  0.67099910    -0.01200
Br947      Br  0.62646166  0.45813126  0.79692884    -0.01200
Br948      Br  0.62030824  0.36841745  0.76292770    -0.01200
C949        C  0.57828034  0.55482325  0.87112396    -0.02300
C950        C  0.56738604  0.55287957  0.84521821     0.07400
C951        C  0.52386588  0.54352461  0.83821964    -0.02400
C952        C  0.49041421  0.54488430  0.85626602    -0.02400
C953        C  0.50069057  0.55149841  0.88201999     0.07500
C954        C  0.54488305  0.55411451  0.88952623    -0.02600
Br955      Br  0.55980371  0.55687219  0.92493502    -0.01200
Br956      Br  0.63830642  0.55910775  0.88171734    -0.01200
Br957      Br  0.43048317  0.54312544  0.84455446    -0.01200
Br958      Br  0.50980925  0.52901738  0.80357378    -0.01200
C959        C  0.67518000  0.73913748  0.88053954    -0.02300
C960        C  0.65453334  0.77789873  0.87390865     0.07400
C961        C  0.64337653  0.78517156  0.84840108    -0.02400
C962        C  0.64650178  0.75148350  0.83069534    -0.02400
C963        C  0.66031901  0.71018381  0.83847873     0.07500
C964        C  0.67839478  0.70536673  0.86294544    -0.02600
Br965      Br  0.70669178  0.65287032  0.87336550    -0.01200
Br966      Br  0.69966384  0.73266966  0.91382954    -0.01200
Br967      Br  0.63372221  0.76280677  0.79553629    -0.01200
Br968      Br  0.62157425  0.84017926  0.83760840    -0.01200
C969        C  0.77670810  0.57037024  0.46795837    -0.02300
C970        C  0.77627233  0.58067385  0.49387834     0.07400
C971        C  0.73609866  0.58738366  0.50613634    -0.02400
C972        C  0.69645713  0.58074289  0.49324975    -0.02400
C973        C  0.69649283  0.56909894  0.46742915     0.07500
C974        C  0.73698070  0.56506528  0.45467132    -0.02600
Br975      Br  0.73860578  0.55434588  0.41875959    -0.01200
Br976      Br  0.83173597  0.56240551  0.45083523    -0.01200
Br977      Br  0.64241804  0.58542252  0.51187024    -0.01200
Br978      Br  0.73548285  0.60802051  0.54046595    -0.01200
C979        C  0.99416599  0.51274224  0.48224678    -0.02300
C980        C  0.95274477  0.49832149  0.49135828     0.07400
C981        C  0.94183248  0.45418348  0.48935707    -0.02400
C982        C  0.97288358  0.42429541  0.48083400    -0.02400
C983        C  0.01437941  0.43863829  0.47168540     0.07500
C984        C  0.02501994  0.48296072  0.47327196    -0.02600
Br985      Br  0.08366325  0.50337175  0.46569953    -0.01200
Br986      Br  0.01010196  0.57329137  0.48082332    -0.01200
Br987      Br  0.95715142  0.36377065  0.48347357    -0.01200
Br988      Br  0.88257897  0.43434976  0.49583909    -0.01200
C989        C  0.09832761  0.47894211  0.72289390    -0.02300
C990        C  0.13765819  0.50009453  0.71585489     0.07400
C991        C  0.17796813  0.48210685  0.72328875    -0.02400
C992        C  0.17883294  0.44386197  0.73768082    -0.02400
C993        C  0.13946141  0.42299376  0.74481175     0.07500
C994        C  0.09923288  0.44014405  0.73679999    -0.02600
Br995      Br  0.04481589  0.41154821  0.74549116    -0.01200
Br996      Br  0.04259184  0.50251551  0.71372426    -0.01200
Br997      Br  0.23458143  0.41930566  0.74671044    -0.01200
Br998      Br  0.23253997  0.51114023  0.71548565    -0.01200
C999        C  0.20881261  0.68860712  0.74578243    -0.02300
C1000       C  0.22329390  0.67230229  0.72235993     0.07400
C1001       C  0.26225630  0.68918602  0.71163954    -0.02400
C1002       C  0.28357316  0.72472674  0.72289176    -0.02400
C1003       C  0.26764708  0.74262322  0.74573599     0.07500
C1004       C  0.22905434  0.72499567  0.75659418    -0.02600
Br1005     Br  0.20128182  0.75055571  0.78573035    -0.01200
Br1006     Br  0.16359807  0.65856219  0.76468601    -0.01200
Br1007     Br  0.33254543  0.75072729  0.70515982    -0.01200
Br1008     Br  0.28848140  0.66356848  0.68197703    -0.01200
C1009       C  0.06298281  0.58889447  0.59757403    -0.02300
C1010       C  0.05184009  0.57787632  0.62284717     0.07400
C1011       C  0.00802204  0.56698912  0.62855047    -0.02400
C1012       C  0.97569053  0.56878750  0.60979986    -0.02400
C1013       C  0.98698835  0.57833615  0.58446270     0.07500
C1014       C  0.03075683  0.58864057  0.57848943    -0.02600
Br1015     Br  0.04694112  0.60314418  0.54427246    -0.01200
Br1016     Br  0.12139018  0.60801516  0.58880364    -0.01200
Br1017     Br  0.91507291  0.56270194  0.62001685    -0.01200
Br1018     Br  0.99114970  0.54885097  0.66206168    -0.01200
C1019       C  0.80286457  0.95427366  0.72460394    -0.02300
C1020       C  0.84190178  0.93065704  0.72095864     0.07400
C1021       C  0.88125988  0.94719566  0.73159392    -0.02400
C1022       C  0.88154417  0.98669113  0.74497647    -0.02400
C1023       C  0.84269907  0.01023016  0.74812678     0.07500
C1024       C  0.80353591  0.99390105  0.73771432    -0.02600
Br1025     Br  0.75066416  0.02713362  0.74029099    -0.01200
Br1026     Br  0.74705614  0.93180114  0.71331938    -0.01200
Br1027     Br  0.93524370  0.00785256  0.75984388    -0.01200
Br1028     Br  0.93575233  0.91693822  0.72790964    -0.01200
C1029       C  0.77452821  0.73757208  0.74635728    -0.02300
C1030       C  0.76052803  0.75286903  0.72251925     0.07400
C1031       C  0.72186970  0.73533800  0.71181220    -0.02400
C1032       C  0.70071843  0.69983630  0.72334361    -0.02400
C1033       C  0.71620292  0.68294537  0.74650429     0.07500
C1034       C  0.75252369  0.70303836  0.75828942    -0.02600
Br1035     Br  0.77090450  0.68620759  0.79185651    -0.01200
Br1036     Br  0.82184097  0.76620592  0.76410547    -0.01200
Br1037     Br  0.65104988  0.67383829  0.70650382    -0.01200
Br1038     Br  0.69625619  0.75959025  0.68156774    -0.01200
C1039       C  0.81391881  0.68861583  0.62798578    -0.02300
C1040       C  0.84681177  0.72020753  0.63116367     0.07400
C1041       C  0.88374790  0.71982841  0.61542299    -0.02400
C1042       C  0.88583343  0.69121067  0.59499144    -0.02400
C1043       C  0.85163628  0.66083887  0.59066831     0.07500
C1044       C  0.81666510  0.65838661  0.60810420    -0.02600
Br1045     Br  0.77235606  0.61418921  0.60509617    -0.01200
Br1046     Br  0.76691853  0.68486685  0.65202796    -0.01200
Br1047     Br  0.93767896  0.69342875  0.57408538    -0.01200
Br1048     Br  0.93226768  0.75846118  0.62190847    -0.01200
C1049       C  0.20068613  0.83872178  0.47079816    -0.02300
C1050       C  0.20231474  0.84883159  0.49687585     0.07400
C1051       C  0.24384003  0.85572649  0.50825991    -0.02400
C1052       C  0.28251667  0.85321082  0.49378681    -0.02400
C1053       C  0.28034535  0.84539095  0.46765715     0.07500
C1054       C  0.23940812  0.83769131  0.45627405    -0.02600
Br1055     Br  0.23655426  0.82480401  0.42062381    -0.01200
Br1056     Br  0.14566236  0.82807920  0.45417141    -0.01200
Br1057     Br  0.33880713  0.86182889  0.50960785    -0.01200
Br1058     Br  0.24902232  0.86787571  0.54387675    -0.01200
C1059       C  0.99555925  0.96596526  0.50970787    -0.02300
C1060       C  0.02192468  0.93734432  0.49577317     0.07400
C1061       C  0.01216507  0.92967391  0.47009889    -0.02400
C1062       C  0.97732811  0.95120693  0.45829704    -0.02400
C1063       C  0.95138772  0.98029562  0.47217700     0.07500
C1064       C  0.96073196  0.98736733  0.49792322    -0.02600
Br1065     Br  0.92504181  0.02566992  0.51752003    -0.01200
Br1066     Br  0.00457043  0.97420089  0.54551794    -0.01200
Br1067     Br  0.96775522  0.94276929  0.42255920    -0.01200
Br1068     Br  0.04745306  0.89073232  0.45059964    -0.01200
C1069       C  0.17032347  0.74697522  0.62886813    -0.02300
C1070       C  0.13464189  0.71964352  0.63478118     0.07400
C1071       C  0.09436437  0.72550222  0.62257031    -0.02400
C1072       C  0.09102387  0.75523258  0.60278321    -0.02400
C1073       C  0.12735711  0.78125420  0.59567277     0.07500
C1074       C  0.16637421  0.77852577  0.60972672    -0.02600
Br1075     Br  0.21476738  0.81656091  0.60244029    -0.01200
Br1076     Br  0.22393669  0.74214299  0.64759121    -0.01200
Br1077     Br  0.03538210  0.75940815  0.58589973    -0.01200
Br1078     Br  0.04341058  0.69148097  0.63194425    -0.01200
C1079       C  0.96946832  0.87771251  0.63216678    -0.02300
C1080       C  0.92541581  0.86918354  0.62571606     0.07400
C1081       C  0.91431674  0.86464431  0.59975879    -0.02400
C1082       C  0.94727583  0.86597280  0.58103840    -0.02400
C1083       C  0.99155803  0.86967474  0.58802630     0.07500
C1084       C  0.00242308  0.87569704  0.61372984    -0.02600
Br1085     Br  0.06279718  0.87652353  0.62463862    -0.01200
Br1086     Br  0.98555569  0.89303756  0.66631413    -0.01200
Br1087     Br  0.93167520  0.86309803  0.54572448    -0.01200
Br1088     Br  0.85495092  0.85303354  0.58918585    -0.01200
loop_ 
_geom_bond_atom_site_label_1 
_geom_bond_atom_site_label_2 
_geom_bond_distance 
_geom_bond_site_symmetry_2 
_ccdc_geom_bond_type 
O1            V9   1.917       .  S
O1           C11   1.269       .  A
O2            V9   1.916       .  S
O2           C12   1.269       .  A
O3            V9   1.883       .  S
O3           C13   1.259       .  A
O4            V9   1.879       .  S
O4           C14   1.259       .  A
O5           V10   1.920       .  S
O5           C14   1.269       .  A
O6           V10   1.912       .  S
O6           C13   1.269       .  A
O7           V10   1.884       .  S
O7           C12   1.259       .  A
O8           V10   1.900       .  S
O8           C11   1.264       .  A
V9           V10   2.084       .  T
C11        C1050   1.501       .  S
C12        C1083   1.485   1_455  S
C13        C1060   1.482       .  S
C14        C1073   1.484       .  S
O15          V23   1.913       .  S
O15          C25   1.267       .  A
O16          V23   1.900       .  S
O16          C26   1.264       .  A
O17          V23   1.892       .  S
O17          C27   1.264       .  A
O18          V23   1.887       .  S
O18          C28   1.262       .  A
O19          V24   1.906       .  S
O19          C28   1.266       .  A
O20          V24   1.907       .  S
O20          C27   1.265       .  A
O21          V24   1.905       .  S
O21          C26   1.265       .  A
O22          V24   1.905       .  S
O22          C25   1.266       .  A
V23          V24   2.080       .  T
C25        C1020   1.506       .  S
C26        C1040   1.478       .  S
C27        C1080   1.495       .  S
C28        C1030   1.491       .  S
O29          V37   1.905       .  S
O29          C39   1.265       .  A
O30          V37   1.893       .  S
O30          C40   1.263       .  A
O31          V37   1.892       .  S
O31          C41   1.264       .  A
O32          V37   1.883       .  S
O32          C42   1.262       .  A
O33          V38   1.900       .  S
O33          C42   1.264       .  A
O34          V38   1.904       .  S
O34          C41   1.265       .  A
O35          V38   1.902       .  S
O35          C40   1.264       .  A
O36          V38   1.901       .  S
O36          C39   1.265       .  A
V37          V38   2.083       .  T
C39         C990   1.490       .  S
C40        C1070   1.474       .  S
C41        C1010   1.490       .  S
C42        C1000   1.489       .  S
O43          V51   1.913       .  S
O43          C53   1.267       .  A
O44          V51   1.917       .  S
O44          C54   1.269       .  A
O45          V51   1.885       .  S
O45          C55   1.257       .  A
O46          V51   1.886       .  S
O46          C56   1.261       .  A
O47          V52   1.914       .  S
O47          C56   1.268       .  A
O48          V52   1.904       .  S
O48          C55   1.269       .  A
O49          V52   1.880       .  S
O49          C54   1.258       .  A
O50          V52   1.894       .  S
O50          C53   1.263       .  A
V51          V52   2.081       .  T
C53         C970   1.482       .  S
C54        C1013   1.485       .  S
C55         C980   1.495       .  S
C56        C1043   1.489       .  S
O57          V65   1.915       .  S
O57          C67   1.269       .  A
O58          V65   1.905       .  S
O58          C68   1.267       .  A
O59          V65   1.882       .  S
O59          C69   1.259       .  A
O60          V65   1.873       .  S
O60          C70   1.260       .  A
O61          V66   1.917       .  S
O61          C70   1.268       .  A
O62          V66   1.910       .  S
O62          C69   1.269       .  A
O63          V66   1.892       .  S
O63          C68   1.261       .  A
O64          V66   1.895       .  S
O64          C67   1.262       .  A
V65          V66   2.083       .  T
C67         C943   1.487       .  S
C68         C963   1.488       .  S
C69        C1033   1.488       .  S
C70         C950   1.483       .  S
O71          V79   1.921       .  S
O71          C81   1.269       .  A
O72          V79   1.910       .  S
O72          C82   1.268       .  A
O73          V79   1.894       .  S
O73          C83   1.262       .  A
O74          V79   1.886       .  S
O74          C84   1.261       .  A
O75          V80   1.906       .  S
O75          C84   1.267       .  A
O76          V80   1.911       .  S
O76          C83   1.267       .  A
O77          V80   1.879       .  S
O77          C82   1.258       .  A
O78          V80   1.888       .  S
O78          C81   1.262       .  A
V79          V80   2.085       .  T
C81         C913   1.491       .  S
C82         C953   1.478       .  S
C83         C930   1.483       .  S
C84         C920   1.477       .  S
O85          V93   1.912       .  S
O85          C95   1.267       .  A
O86          V93   1.901       .  S
O86          C96   1.265       .  A
O87          V93   1.885       .  S
O87          C97   1.261       .  A
O88          V93   1.887       .  S
O88          C98   1.262       .  A
O89          V94   1.903       .  S
O89          C98   1.264       .  A
O90          V94   1.903       .  S
O90          C97   1.265       .  A
O91          V94   1.907       .  S
O91          C96   1.265       .  A
O92          V94   1.910       .  S
O92          C95   1.266       .  A
V93          V94   2.083       .  T
C95         C890   1.491       .  S
C96         C933   1.490       .  S
C97        C1003   1.492       .  S
C98         C900   1.475       .  S
O99         V107   1.917       .  S
O99         C109   1.268       .  A
O100        V107   1.910       .  S
O100        C110   1.269       .  A
O101        V107   1.892       .  S
O101        C111   1.263       .  A
O102        V107   1.890       .  S
O102        C112   1.261       .  A
O103        V108   1.906       .  S
O103        C112   1.267       .  A
O104        V108   1.910       .  S
O104        C111   1.266       .  A
O105        V108   1.887       .  S
O105        C110   1.259       .  A
O106        V108   1.893       .  S
O106        C109   1.264       .  A
V107        V108   2.082       .  T
C109        C870   1.498       .  S
C110        C903   1.495       .  S
C111        C960   1.483       .  S
C112        C880   1.475       .  S
O113        V121   1.923       .  S
O113        C123   1.270       .  A
O114        V121   1.915       .  S
O114        C124   1.269       .  A
O115        V121   1.892       .  S
O115        C125   1.261       .  A
O116        V121   1.889       .  S
O116        C126   1.261       .  A
O117        V122   1.912       .  S
O117        C126   1.267       .  A
O118        V122   1.906       .  S
O118        C125   1.267       .  A
O119        V122   1.882       .  S
O119        C124   1.258       .  A
O120        V122   1.891       .  S
O120        C123   1.262       .  A
V121        V122   2.083       .  T
C123        C840   1.493   1_554  S
C124        C860   1.500       .  S
C125        C923   1.483   1_554  S
C126        C850   1.478       .  S
O127        V135   1.902       .  S
O127        C137   1.265       .  A
O128        V135   1.896       .  S
O128        C138   1.264       .  A
O129        V135   1.892       .  S
O129        C139   1.263       .  A
O130        V135   1.895       .  S
O130        C140   1.262       .  A
O131        V136   1.904       .  S
O131        C140   1.266       .  A
O132        V136   1.904       .  S
O132        C139   1.264       .  A
O133        V136   1.898       .  S
O133        C138   1.264       .  A
O134        V136   1.908       .  S
O134        C137   1.266       .  A
V135        V136   2.087       .  T
C137        C810   1.485       .  S
C138        C830   1.478       .  S
C139        C863   1.477       .  S
C140        C823   1.481       .  S
O141        V149   1.914       .  S
O141        C151   1.269       .  A
O142        V149   1.904       .  S
O142        C152   1.267       .  A
O143        V149   1.877       .  S
O143        C153   1.261       .  A
O144        V149   1.882       .  S
O144        C154   1.259       .  A
O145        V150   1.905       .  S
O145        C154   1.267       .  A
O146        V150   1.913       .  S
O146        C153   1.267       .  A
O147        V150   1.897       .  S
O147        C152   1.262       .  A
O148        V150   1.898       .  S
O148        C151   1.263       .  A
V149        V150   2.079       .  T
C151        C783   1.488   1_545  S
C152        C853   1.497       .  S
C153        C800   1.481       .  S
C154        C790   1.485       .  S
O155        V163   1.916       .  S
O155        C165   1.269       .  A
O156        V163   1.913       .  S
O156        C166   1.269       .  A
O157        V163   1.882       .  S
O157        C167   1.259   1_545  A
O158        V163   1.880       .  S
O158        C168   1.258       .  A
O159        V164   1.921       .  S
O159        C168   1.270       .  A
O160        V164   1.911   1_565  S
O160        C167   1.268       .  A
O161        V164   1.878       .  S
O161        C166   1.257       .  A
O162        V164   1.894       .  S
O162        C165   1.262       .  A
V163        V164   2.083       .  T
C165        C773   1.502   1_554  S
C166        C803   1.486       .  S
C167        C883   1.477   1_554  S
C168        C833   1.484       .  S
O169        V177   1.908       .  S
O169        C179   1.266       .  A
O170        V177   1.896       .  S
O170        C180   1.263       .  A
O171        V177   1.886       .  S
O171        C181   1.261       .  A
O172        V177   1.889       .  S
O172        C182   1.264       .  A
O173        V178   1.903       .  S
O173        C182   1.264       .  A
O174        V178   1.899       .  S
O174        C181   1.264       .  A
O175        V178   1.902       .  S
O175        C180   1.264       .  A
O176        V178   1.900       .  S
O176        C179   1.263       .  A
V177        V178   2.083       .  T
C179        C743   1.480       .  S
C180        C763   1.475       .  S
C181        C793   1.490       .  S
C182        C753   1.488       .  S
O183        V191   1.910       .  S
O183        C193   1.267       .  A
O184        V191   1.916       .  S
O184        C194   1.269       .  A
O185        V191   1.880       .  S
O185        C195   1.260       .  A
O186        V191   1.880       .  S
O186        C196   1.256       .  A
O187        V192   1.907       .  S
O187        C196   1.270       .  A
O188        V192   1.918       .  S
O188        C195   1.268       .  A
O189        V192   1.883       .  S
O189        C194   1.258       .  A
O190        V192   1.898       .  S
O190        C193   1.263       .  A
V191        V192   2.081       .  T
C193        C720   1.484       .  S
C194        C750   1.488   1_455  S
C195        C730   1.485       .  S
C196        C983   1.497       .  S
O197        V205   1.903       .  S
O197        C207   1.265       .  A
O198        V205   1.893       .  S
O198        C208   1.263       .  A
O199        V205   1.893       .  S
O199        C209   1.262       .  A
O200        V205   1.894       .  S
O200        C210   1.264       .  A
O201        V206   1.911       .  S
O201        C210   1.267       .  A
O202        V206   1.907       .  S
O202        C209   1.267       .  A
O203        V206   1.895       .  S
O203        C208   1.262       .  A
O204        V206   1.904       .  S
O204        C207   1.265       .  A
V205        V206   2.087       .  T
C207        C700   1.481   1_545  S
C208        C733   1.469       .  S
C209        C820   1.482       .  S
C210        C713   1.490       .  S
O211        V219   1.920       .  S
O211        C221   1.270       .  A
O212        V219   1.919       .  S
O212        C222   1.270       .  A
O213        V219   1.880       .  S
O213        C223   1.259       .  A
O214        V219   1.883       .  S
O214        C224   1.259       .  A
O215        V220   1.912   1_565  S
O215        C224   1.269   1_565  A
O216        V220   1.917       .  S
O216        C223   1.269       .  A
O217        V220   1.889       .  S
O217        C222   1.259       .  A
O218        V220   1.904       .  S
O218        C221   1.265       .  A
V219        V220   2.081       .  T
C221        C693   1.504       .  S
C222        C710   1.498       .  S
C223        C760   1.485       .  S
C224       C1063   1.481   1_545  S
O225        V233   1.909       .  S
O225        C235   1.266       .  A
O226        V233   1.909       .  S
O226        C236   1.267       .  A
O227        V233   1.895       .  S
O227        C237   1.260       .  A
O228        V233   1.887       .  S
O228        C238   1.261       .  A
O229        V234   1.907       .  S
O229        C238   1.266       .  A
O230        V234   1.902       .  S
O230        C237   1.268       .  A
O231        V234   1.891       .  S
O231        C236   1.260       .  A
O232        V234   1.899       .  S
O232        C235   1.264       .  A
V233        V234   2.082       .  T
C235        C940   1.484       .  S
C236        C680   1.503       .  S
C237        C660   1.498       .  S
C238        C673   1.473       .  S
O239        V247   1.909       .  S
O239        C249   1.268       .  A
O240        V247   1.901       .  S
O240        C250   1.267       .  A
O241        V247   1.882       .  S
O241        C251   1.260       .  A
O242        V247   1.884       .  S
O242        C252   1.260       .  A
O243        V248   1.909       .  S
O243        C252   1.268       .  A
O244        V248   1.918       .  S
O244        C251   1.268       .  A
O245        V248   1.890       .  S
O245        C250   1.259       .  A
O246        V248   1.898       .  S
O246        C249   1.263       .  A
V247        V248   2.082       .  T
C249        C723   1.491       .  S
C250        C670   1.485       .  S
C251        C650   1.476       .  S
C252        C640   1.489       .  S
O253        V261   1.917       .  S
O253        C263   1.269       .  A
O254        V261   1.911       .  S
O254        C264   1.268       .  A
O255        V261   1.886       .  S
O255        C265   1.260       .  A
O256        V261   1.886       .  S
O256        C266   1.260       .  A
O257        V262   1.908       .  S
O257        C266   1.266       .  A
O258        V262   1.902       .  S
O258        C265   1.265       .  A
O259        V262   1.893       .  S
O259        C264   1.261       .  A
O260        V262   1.903       .  S
O260        C263   1.265       .  A
V261        V262   2.084       .  T
C263        C893   1.500       .  S
C264        C653   1.502       .  S
C265        C623   1.476       .  S
C266        C630   1.471       .  S
O267        V275   1.910       .  S
O267        C277   1.267       .  A
O268        V275   1.903       .  S
O268        C278   1.263       .  A
O269        V275   1.889       .  S
O269        C279   1.261       .  A
O270        V275   1.891       .  S
O270        C280   1.261       .  A
O271        V276   1.905       .  S
O271        C280   1.267       .  A
O272        V276   1.907       .  S
O272        C279   1.266       .  A
O273        V276   1.888       .  S
O273        C278   1.262       .  A
O274        V276   1.900       .  S
O274        C277   1.264       .  A
V275        V276   2.083       .  T
C277        C690   1.488       .  S
C278        C633   1.501       .  S
C279        C683   1.475       .  S
C280        C613   1.482   1_545  S
O281        V289   1.905       .  S
O281        C291   1.266       .  A
O282        V289   1.906       .  S
O282        C292   1.267       .  A
O283        V289   1.881       .  S
O283        C293   1.259       .  A
O284        V289   1.870       .  S
O284        C294   1.258       .  A
O285        V290   1.905       .  S
O285        C294   1.266       .  A
O286        V290   1.908       .  S
O286        C293   1.267       .  A
O287        V290   1.886       .  S
O287        C292   1.260       .  A
O288        V290   1.894       .  S
O288        C291   1.263       .  A
V289        V290   2.082       .  T
C291        C993   1.484       .  S
C292        C600   1.482       .  S
C293        C590   1.476       .  S
C294        C620   1.464       .  S
O295        V303   1.901       .  S
O295        C305   1.265       .  A
O296        V303   1.891       .  S
O296        C306   1.262       .  A
O297        V303   1.887       .  S
O297        C307   1.261       .  A
O298        V303   1.888       .  S
O298        C308   1.263       .  A
O299        V304   1.904       .  S
O299        C308   1.264       .  A
O300        V304   1.902       .  S
O300        C307   1.265       .  A
O301        V304   1.904       .  S
O301        C306   1.264       .  A
O302        V304   1.907       .  S
O302        C305   1.266       .  A
V303        V304   2.085       .  T
C305        C843   1.485       .  S
C306        C593   1.475       .  S
C307        C570   1.492       .  S
C308        C580   1.478       .  S
O309        V317   1.914       .  S
O309        C319   1.268       .  A
O310        V317   1.917       .  S
O310        C320   1.269       .  A
O311        V317   1.882       .  S
O311        C321   1.259       .  A
O312        V317   1.885       .  S
O312        C322   1.257       .  A
O313        V318   1.911       .  S
O313        C322   1.270       .  A
O314        V318   1.918       .  S
O314        C321   1.269       .  A
O315        V318   1.882       .  S
O315        C320   1.258       .  A
O316        V318   1.903       .  S
O316        C319   1.265       .  A
V317        V318   2.079       .  T
C319       C1023   1.493       .  S
C320        C583   1.498       .  S
C321        C560   1.486       .  S
C322        C663   1.503       .  S
O323        V331   1.903       .  S
O323        C333   1.265       .  A
O324        V331   1.901       .  S
O324        C334   1.265       .  A
O325        V331   1.889       .  S
O325        C335   1.261       .  A
O326        V331   1.886       .  S
O326        C336   1.263       .  A
O327        V332   1.903       .  S
O327        C336   1.265       .  A
O328        V332   1.897       .  S
O328        C335   1.266       .  A
O329        V332   1.895       .  S
O329        C334   1.262       .  A
O330        V332   1.903       .  S
O330        C333   1.264       .  A
V331        V332   2.086       .  T
C333        C770   1.478       .  S
C334        C563   1.471   1_455  S
C335        C553   1.483   1_545  S
C336        C603   1.480       .  S
O337        V345   1.914       .  S
O337        C347   1.268       .  A
O338        V345   1.916       .  S
O338        C348   1.271       .  A
O339        V345   1.882       .  S
O339        C349   1.259       .  A
O340        V345   1.874       .  S
O340        C350   1.255       .  A
O341        V346   1.914       .  S
O341        C350   1.270       .  A
O342        V346   1.927       .  S
O342        C349   1.272       .  A
O343        V346   1.885       .  S
O343        C348   1.258       .  A
O344        V346   1.901       .  S
O344        C347   1.264       .  A
V345        V346   2.082       .  T
C347        C813   1.494       .  S
C348        C540   1.493       .  S
C349        C530   1.486       .  S
C350        C520   1.492       .  S
O351        V359   1.895       .  S
O351        C361   1.263       .  A
O352        V359   1.886       .  S
O352        C362   1.261       .  A
O353        V359   1.894       .  S
O353        C363   1.264       .  A
O354        V359   1.896       .  S
O354        C364   1.263       .  A
O355        V360   1.897       .  S
O355        C364   1.262       .  A
O356        V360   1.897       .  S
O356        C363   1.263       .  A
O357        V360   1.910       .  S
O357        C362   1.267       .  A
O358        V360   1.911       .  S
O358        C361   1.267       .  A
V359        V360   2.084       .  T
C361        C973   1.490       .  S
C362        C533   1.484       .  S
C363        C643   1.495       .  S
C364        C510   1.469       .  S
O365        V373   1.910       .  S
O365        C375   1.267       .  A
O366        V373   1.901       .  S
O366        C376   1.264       .  A
O367        V373   1.893       .  S
O367        C377   1.262       .  A
O368        V373   1.889       .  S
O368        C378   1.262       .  A
O369        V374   1.902       .  S
O369        C378   1.265       .  A
O370        V374   1.902       .  S
O370        C377   1.266       .  A
O371        V374   1.893       .  S
O371        C376   1.262       .  A
O372        V374   1.901       .  S
O372        C375   1.264       .  A
V373        V374   2.083       .  T
C375       C1053   1.484       .  S
C376        C500   1.504       .  S
C377        C610   1.482       .  S
C378        C543   1.477       .  S
O379        V387   1.905       .  S
O379        C389   1.266       .  A
O380        V387   1.902       .  S
O380        C390   1.263       .  A
O381        V387   1.889       .  S
O381        C391   1.261       .  A
O382        V387   1.892       .  S
O382        C392   1.261       .  A
O383        V388   1.901       .  S
O383        C392   1.265       .  A
O384        V388   1.906       .  S
O384        C391   1.265       .  A
O385        V388   1.892       .  S
O385        C390   1.263       .  A
O386        V388   1.902       .  S
O386        C389   1.265       .  A
V387        V388   2.084       .  T
C389        C780   1.485       .  S
C390        C513   1.502       .  S
C391        C503   1.473       .  S
C392        C493   1.479       .  S
O393        V401   1.900       .  S
O393        C403   1.265       .  A
O394        V401   1.891       .  S
O394        C404   1.263       .  A
O395        V401   1.895       .  S
O395        C405   1.261       .  A
O396        V401   1.899       .  S
O396        C406   1.265       .  A
O397        V402   1.905       .  S
O397        C406   1.265       .  A
O398        V402   1.889       .  S
O398        C405   1.265       .  A
O399        V402   1.891       .  S
O399        C404   1.261       .  A
O400        V402   1.905       .  S
O400        C403   1.265       .  A
V401        V402   2.086       .  T
C403        C703   1.484       .  S
C404        C483   1.470       .  S
C405        C523   1.483       .  S
C406        C470   1.479       .  S
O407        V415   1.913       .  S
O407        C417   1.269       .  A
O408        V415   1.925       .  S
O408        C418   1.271       .  A
O409        V415   1.875       .  S
O409        C419   1.258       .  A
O410        V415   1.875       .  S
O410        C420   1.255       .  A
O411        V416   1.916       .  S
O411        C420   1.270       .  A
O412        V416   1.915       .  S
O412        C419   1.268       .  A
O413        V416   1.882       .  S
O413        C418   1.258       .  A
O414        V416   1.896       .  S
O414        C417   1.263       .  A
V415        V416   2.079       .  T
C417        C873   1.493       .  S
C418        C473   1.508   1_655  S
C419        C463   1.476       .  S
C420        C550   1.488   1_554  S
O421        V429   1.915       .  S
O421        C431   1.268       .  A
O422        V429   1.910       .  S
O422        C432   1.268       .  A
O423        V429   1.879       .  S
O423        C433   1.259       .  A
O424        V429   1.871       .  S
O424        C434   1.258       .  A
O425        V430   1.910       .  S
O425        C434   1.267       .  A
O426        V430   1.915       .  S
O426        C433   1.268       .  A
O427        V430   1.892       .  S
O427        C432   1.260       .  A
O428        V430   1.896       .  S
O428        C431   1.264       .  A
V429        V430   2.079       .  T
C431        C910   1.491       .  S
C432        C450   1.498   1_455  S
C433        C480   1.475       .  S
C434        C573   1.484   1_554  S
O435        V443   1.900       .  S
O435        C445   1.264       .  A
O436        V443   1.890       .  S
O436        C446   1.263       .  A
O437        V443   1.888       .  S
O437        C447   1.261       .  A
O438        V443   1.888       .  S
O438        C448   1.262       .  A
O439        V444   1.913       .  S
O439        C448   1.267       .  A
O440        V444   1.900       .  S
O440        C447   1.265       .  A
O441        V444   1.898       .  S
O441        C446   1.262       .  A
O442        V444   1.907       .  S
O442        C445   1.266       .  A
V443        V444   2.086       .  T
C445        C740   1.494       .  S
C446        C460   1.469       .  S
C447        C490   1.473       .  S
C448        C453   1.482       .  S
C449        C450   1.419       .  A
C449        C454   1.412       .  A
C449       Br456   1.934       .  S
C450        C451   1.423       .  A
C451        C452   1.409       .  A
C451       Br458   1.936   1_655  S
C452        C453   1.406       .  A
C452       Br457   1.935       .  S
C453        C454   1.411       .  A
C454       Br455   1.932       .  S
C459        C460   1.404       .  A
C459        C464   1.397       .  A
C459       Br466   1.934       .  S
C460        C461   1.412       .  A
C461        C462   1.413       .  A
C461       Br468   1.929       .  S
C462        C463   1.410       .  A
C462       Br467   1.928       .  S
C463        C464   1.415       .  A
C464       Br465   1.932       .  S
C469        C470   1.409       .  A
C469        C474   1.412       .  A
C469       Br476   1.931       .  S
C470        C471   1.400       .  A
C471        C472   1.409       .  A
C471       Br478   1.932       .  S
C472        C473   1.429       .  A
C472       Br477   1.937   1_455  S
C473        C474   1.422       .  A
C474       Br475   1.932       .  S
C479        C480   1.408       .  A
C479        C484   1.411       .  A
C479       Br486   1.927       .  S
C480        C481   1.414       .  A
C481        C482   1.397       .  A
C481       Br488   1.926       .  S
C482        C483   1.405       .  A
C482       Br487   1.938       .  S
C483        C484   1.414       .  A
C484       Br485   1.930       .  S
C489        C490   1.416       .  A
C489        C494   1.407       .  A
C489       Br496   1.932       .  S
C490        C491   1.404       .  A
C491        C492   1.406       .  A
C491       Br498   1.934       .  S
C492        C493   1.417       .  A
C492       Br497   1.927       .  S
C493        C494   1.408       .  A
C494       Br495   1.933       .  S
C499        C500   1.430       .  A
C499        C504   1.410       .  A
C499       Br506   1.937       .  S
C500        C501   1.427       .  A
C501        C502   1.407       .  A
C501       Br508   1.939       .  S
C502        C503   1.404       .  A
C502       Br507   1.929       .  S
C503        C504   1.401       .  A
C504       Br505   1.933       .  S
C509        C510   1.404       .  A
C509        C514   1.406       .  A
C509       Br516   1.933       .  S
C510        C511   1.400       .  A
C511        C512   1.408       .  A
C511       Br518   1.933       .  S
C512        C513   1.429       .  A
C512       Br517   1.938       .  S
C513        C514   1.427       .  A
C514       Br515   1.937       .  S
C519        C520   1.413       .  A
C519        C524   1.413       .  A
C519       Br526   1.934       .  S
C520        C521   1.424       .  A
C521        C522   1.401       .  A
C521       Br528   1.937       .  S
C522        C523   1.405       .  A
C522       Br527   1.938       .  S
C523        C524   1.420       .  A
C524       Br525   1.935       .  S
C529        C530   1.416       .  A
C529        C534   1.402       .  A
C529       Br536   1.928       .  S
C530        C531   1.408       .  A
C531        C532   1.413       .  A
C531       Br538   1.919       .  S
C532        C533   1.414       .  A
C532       Br537   1.925       .  S
C533        C534   1.413       .  A
C534       Br535   1.945       .  S
C539        C540   1.414       .  A
C539        C544   1.407       .  A
C539       Br546   1.923       .  S
C540        C541   1.423       .  A
C541        C542   1.408       .  A
C541       Br548   1.937       .  S
C542        C543   1.408       .  A
C542       Br547   1.935       .  S
C543        C544   1.410       .  A
C544       Br545   1.934       .  S
C549        C550   1.424   1_455  A
C549        C554   1.406       .  A
C549       Br556   1.938       .  S
C550        C551   1.409       .  A
C551        C552   1.409   1_565  A
C551       Br558   1.931   1_566  S
C552        C553   1.420   1_645  A
C552       Br557   1.936       .  S
C553        C554   1.409       .  A
C554       Br555   1.940       .  S
C559        C560   1.421       .  A
C559        C564   1.400       .  A
C559       Br566   1.932       .  S
C560        C561   1.413       .  A
C561        C562   1.414       .  A
C561       Br568   1.927       .  S
C562        C563   1.411       .  A
C562       Br567   1.929   1_545  S
C563        C564   1.402       .  A
C564       Br565   1.936   1_655  S
C569        C570   1.418       .  A
C569        C574   1.405   1_655  A
C569       Br576   1.937       .  S
C570        C571   1.419       .  A
C571        C572   1.410   1_656  A
C571       Br578   1.936   1_556  S
C572        C573   1.415   1_554  A
C572       Br577   1.936       .  S
C573        C574   1.413       .  A
C574       Br575   1.939       .  S
C579        C580   1.404       .  A
C579        C584   1.406       .  A
C579       Br586   1.938       .  S
C580        C581   1.411       .  A
C581        C582   1.411       .  A
C581       Br588   1.936       .  S
C582        C583   1.420       .  A
C582       Br587   1.930       .  S
C583        C584   1.427       .  A
C584       Br585   1.939       .  S
C589        C590   1.416       .  A
C589        C594   1.399       .  A
C589       Br596   1.934       .  S
C590        C591   1.409       .  A
C591        C592   1.411       .  A
C591       Br598   1.930       .  S
C592        C593   1.412   1_455  A
C592       Br597   1.921       .  S
C593        C594   1.409   1_655  A
C594       Br595   1.938   1_455  S
C599        C600   1.416       .  A
C599        C604   1.404       .  A
C599       Br606   1.936       .  S
C600        C601   1.412       .  A
C601        C602   1.409       .  A
C601       Br608   1.933       .  S
C602        C603   1.415       .  A
C602       Br607   1.933       .  S
C603        C604   1.410       .  A
C604       Br605   1.935       .  S
C609        C610   1.407       .  A
C609        C614   1.407       .  A
C609       Br616   1.935       .  S
C610        C611   1.417       .  A
C611        C612   1.408       .  A
C611       Br618   1.927       .  S
C612        C613   1.407       .  A
C612       Br617   1.934       .  S
C613        C614   1.418       .  A
C614       Br615   1.929   1_565  S
C619        C620   1.409       .  A
C619        C624   1.406       .  A
C619       Br626   1.932       .  S
C620        C621   1.405       .  A
C621        C622   1.402       .  A
C621       Br628   1.936       .  S
C622        C623   1.417       .  A
C622       Br627   1.929       .  S
C623        C624   1.411       .  A
C624       Br625   1.926       .  S
C629        C630   1.400       .  A
C629        C634   1.408       .  A
C629       Br636   1.933   1_545  S
C630        C631   1.404       .  A
C631        C632   1.406       .  A
C631       Br638   1.927       .  S
C632        C633   1.425       .  A
C632       Br637   1.938       .  S
C633        C634   1.429       .  A
C634       Br635   1.937   1_545  S
C639        C640   1.417       .  A
C639        C644   1.410       .  A
C639       Br646   1.936       .  S
C640        C641   1.414       .  A
C641        C642   1.408       .  A
C641       Br648   1.934       .  S
C642        C643   1.420       .  A
C642       Br647   1.938       .  S
C643        C644   1.417       .  A
C644       Br645   1.935       .  S
C649        C650   1.406       .  A
C649        C654   1.409       .  A
C649       Br656   1.925       .  S
C650        C651   1.404       .  A
C651        C652   1.409       .  A
C651       Br658   1.933       .  S
C652        C653   1.426       .  A
C652       Br657   1.936       .  S
C653        C654   1.420       .  A
C654       Br655   1.935       .  S
C659        C660   1.422       .  A
C659        C664   1.414       .  A
C659       Br666   1.935       .  S
C660        C661   1.411       .  A
C661        C662   1.409       .  A
C661       Br668   1.942       .  S
C662        C663   1.428       .  A
C662       Br667   1.938       .  S
C663        C664   1.416       .  A
C664       Br665   1.937       .  S
C669        C670   1.413       .  A
C669        C674   1.405       .  A
C669       Br676   1.935       .  S
C670        C671   1.417       .  A
C671        C672   1.406       .  A
C671       Br678   1.934       .  S
C672        C673   1.408       .  A
C672       Br677   1.931       .  S
C673        C674   1.408       .  A
C674       Br675   1.924       .  S
C679        C680   1.429       .  A
C679        C684   1.410       .  A
C679       Br686   1.937       .  S
C680        C681   1.423       .  A
C681        C682   1.409       .  A
C681       Br688   1.934       .  S
C682        C683   1.407       .  A
C682       Br687   1.933       .  S
C683        C684   1.403       .  A
C684       Br685   1.935       .  S
C689        C690   1.412       .  A
C689        C694   1.414       .  A
C689       Br696   1.933       .  S
C690        C691   1.408       .  A
C691        C692   1.413       .  A
C691       Br698   1.934       .  S
C692        C693   1.420       .  A
C692       Br697   1.925       .  S
C693        C694   1.416       .  A
C694       Br695   1.923       .  S
C699        C700   1.410   1_545  A
C699        C704   1.411   1_545  A
C699       Br706   1.931       .  S
C700        C701   1.410       .  A
C701        C702   1.410       .  A
C701       Br708   1.932       .  S
C702        C703   1.414       .  A
C702       Br707   1.932       .  S
C703        C704   1.413       .  A
C704       Br705   1.931       .  S
C709        C710   1.422       .  A
C709        C714   1.410   1_655  A
C709       Br716   1.936       .  S
C710        C711   1.416   1_655  A
C711        C712   1.414       .  A
C711       Br718   1.933       .  S
C712        C713   1.416       .  A
C712       Br717   1.933       .  S
C713        C714   1.409       .  A
C714       Br715   1.935       .  S
C719        C720   1.409       .  A
C719        C724   1.413       .  A
C719       Br726   1.932       .  S
C720        C721   1.409       .  A
C721        C722   1.408       .  A
C721       Br728   1.924       .  S
C722        C723   1.413       .  A
C722       Br727   1.929       .  S
C723        C724   1.419       .  A
C724       Br725   1.932       .  S
C729        C730   1.419       .  A
C729        C734   1.400       .  A
C729       Br736   1.930       .  S
C730        C731   1.412       .  A
C731        C732   1.411       .  A
C731       Br738   1.921       .  S
C732        C733   1.409       .  A
C732       Br737   1.931       .  S
C733        C734   1.404       .  A
C734       Br735   1.937       .  S
C739        C740   1.419       .  A
C739        C744   1.410       .  A
C739       Br746   1.933       .  S
C740        C741   1.419       .  A
C741        C742   1.412       .  A
C741       Br748   1.933       .  S
C742        C743   1.407       .  A
C742       Br747   1.929       .  S
C743        C744   1.407       .  A
C744       Br745   1.932       .  S
C749        C750   1.411       .  A
C749        C754   1.411       .  A
C749       Br756   1.928       .  S
C750        C751   1.417       .  A
C751        C752   1.406       .  A
C751       Br758   1.937   1_655  S
C752        C753   1.412       .  A
C752       Br757   1.936       .  S
C753        C754   1.419       .  A
C754       Br755   1.935       .  S
C759        C760   1.420       .  A
C759        C764   1.403       .  A
C759       Br766   1.932       .  S
C760        C761   1.411       .  A
C761        C762   1.410       .  A
C761       Br768   1.922       .  S
C762        C763   1.409       .  A
C762       Br767   1.923       .  S
C763        C764   1.406       .  A
C764       Br765   1.935       .  S
C769        C770   1.403       .  A
C769        C774   1.410   1_556  A
C769       Br776   1.934   1_556  S
C770        C771   1.407       .  A
C771        C772   1.413       .  A
C771       Br778   1.932       .  S
C772        C773   1.421       .  A
C772       Br777   1.930       .  S
C773        C774   1.425   1_556  A
C774       Br775   1.933       .  S
C779        C780   1.412       .  A
C779        C784   1.410       .  A
C779       Br786   1.933       .  S
C780        C781   1.411       .  A
C781        C782   1.411       .  A
C781       Br788   1.932       .  S
C782        C783   1.414       .  A
C782       Br787   1.932       .  S
C783        C784   1.411       .  A
C784       Br785   1.925   1_565  S
C789        C790   1.415       .  A
C789        C794   1.408       .  A
C789       Br796   1.936       .  S
C790        C791   1.415       .  A
C791        C792   1.407       .  A
C791       Br798   1.939       .  S
C792        C793   1.418       .  A
C792       Br797   1.938       .  S
C793        C794   1.419       .  A
C794       Br795   1.939       .  S
C799        C800   1.408       .  A
C799        C804   1.403       .  A
C799       Br806   1.937   1_545  S
C800        C801   1.413       .  A
C801        C802   1.411       .  A
C801       Br808   1.927       .  S
C802        C803   1.414       .  A
C802       Br807   1.933       .  S
C803        C804   1.420       .  A
C804       Br805   1.937       .  S
C809        C810   1.412       .  A
C809        C814   1.414       .  A
C809       Br816   1.930       .  S
C810        C811   1.408       .  A
C811        C812   1.410       .  A
C811       Br818   1.934       .  S
C812        C813   1.416       .  A
C812       Br817   1.924       .  S
C813        C814   1.415       .  A
C814       Br815   1.931       .  S
C819        C820   1.417       .  A
C819        C824   1.408       .  A
C819       Br826   1.933       .  S
C820        C821   1.409       .  A
C821        C822   1.410       .  A
C821       Br828   1.932       .  S
C822        C823   1.416       .  A
C822       Br827   1.933       .  S
C823        C824   1.408       .  A
C824       Br825   1.933       .  S
C829        C830   1.410       .  A
C829        C834   1.403       .  A
C829       Br836   1.939       .  S
C830        C831   1.412       .  A
C831        C832   1.412       .  A
C831       Br838   1.931       .  S
C832        C833   1.410       .  A
C832       Br837   1.924       .  S
C833        C834   1.419       .  A
C834       Br835   1.937       .  S
C839        C840   1.416   1_554  A
C839        C844   1.409   1_554  A
C839       Br846   1.933       .  S
C840        C841   1.413       .  A
C841        C842   1.414       .  A
C841       Br848   1.924       .  S
C842        C843   1.413       .  A
C842       Br847   1.932       .  S
C843        C844   1.409       .  A
C844       Br845   1.930   1_556  S
C849        C850   1.408       .  A
C849        C854   1.409       .  A
C849       Br856   1.928       .  S
C850        C851   1.406       .  A
C851        C852   1.410       .  A
C851       Br858   1.933       .  S
C852        C853   1.423       .  A
C852       Br857   1.934       .  S
C853        C854   1.419       .  A
C854       Br855   1.936       .  S
C859        C860   1.420       .  A
C859        C864   1.410       .  A
C859       Br866   1.935       .  S
C860        C861   1.428       .  A
C861        C862   1.408       .  A
C861       Br868   1.938       .  S
C862        C863   1.402       .  A
C862       Br867   1.934       .  S
C863        C864   1.410       .  A
C864       Br865   1.933       .  S
C869        C870   1.417       .  A
C869        C874   1.409       .  A
C869       Br876   1.938       .  S
C870        C871   1.417       .  A
C871        C872   1.415       .  A
C871       Br878   1.929       .  S
C872        C873   1.414   1_556  A
C872       Br877   1.933   1_556  S
C873        C874   1.414   1_554  A
C874       Br875   1.932   1_556  S
C879        C880   1.408       .  A
C879        C884   1.409   1_556  A
C879       Br886   1.932   1_556  S
C880        C881   1.412       .  A
C881        C882   1.405       .  A
C881       Br888   1.931       .  S
C882        C883   1.409       .  A
C882       Br887   1.929   1_565  S
C883        C884   1.415   1_556  A
C884       Br885   1.930       .  S
C889        C890   1.409       .  A
C889        C894   1.413       .  A
C889       Br896   1.927       .  S
C890        C891   1.411       .  A
C891        C892   1.415   1_565  A
C891       Br898   1.931       .  S
C892        C893   1.417       .  A
C892       Br897   1.926       .  S
C893        C894   1.418   1_545  A
C894       Br895   1.933       .  S
C899        C900   1.412       .  A
C899        C904   1.409       .  A
C899       Br906   1.934       .  S
C900        C901   1.405       .  A
C901        C902   1.406       .  A
C901       Br908   1.934       .  S
C902        C903   1.423       .  A
C902       Br907   1.934       .  S
C903        C904   1.418       .  A
C904       Br905   1.936       .  S
C909        C910   1.415   1_556  A
C909        C914   1.417       .  A
C909       Br916   1.930   1_556  S
C910        C911   1.413   1_554  A
C911        C912   1.407       .  A
C911       Br918   1.935   1_556  S
C912        C913   1.414       .  A
C912       Br917   1.936       .  S
C913        C914   1.414       .  A
C914       Br915   1.929       .  S
C919        C920   1.408       .  A
C919        C924   1.407   1_556  A
C919       Br926   1.933   1_556  S
C920        C921   1.413       .  A
C921        C922   1.408       .  A
C921       Br928   1.933       .  S
C922        C923   1.412       .  A
C922       Br927   1.927       .  S
C923        C924   1.416   1_556  A
C924       Br925   1.930       .  S
C929        C930   1.413       .  A
C929        C934   1.406       .  A
C929       Br936   1.932       .  S
C930        C931   1.407       .  A
C931        C932   1.413       .  A
C931       Br938   1.930       .  S
C932        C933   1.417       .  A
C932       Br937   1.923       .  S
C933        C934   1.415       .  A
C934       Br935   1.939       .  S
C939        C940   1.413       .  A
C939        C944   1.410       .  A
C939       Br946   1.932       .  S
C940        C941   1.410       .  A
C941        C942   1.412       .  A
C941       Br948   1.932       .  S
C942        C943   1.416       .  A
C942       Br947   1.932       .  S
C943        C944   1.409       .  A
C944       Br945   1.925       .  S
C949        C950   1.413       .  A
C949        C954   1.411       .  A
C949       Br956   1.925       .  S
C950        C951   1.411       .  A
C951        C952   1.401       .  A
C951       Br958   1.937       .  S
C952        C953   1.414       .  A
C952       Br957   1.937       .  S
C953        C954   1.412       .  A
C954       Br955   1.932       .  S
C959        C960   1.407       .  A
C959        C964   1.407       .  A
C959       Br966   1.926       .  S
C960        C961   1.411       .  A
C961        C962   1.409       .  A
C961       Br968   1.924       .  S
C962        C963   1.413       .  A
C962       Br967   1.934       .  S
C963        C964   1.417       .  A
C964       Br965   1.931       .  S
C969        C970   1.409       .  A
C969        C974   1.414       .  A
C969       Br976   1.930       .  S
C970        C971   1.407       .  A
C971        C972   1.406       .  A
C971       Br978   1.928       .  S
C972        C973   1.414       .  A
C972       Br977   1.932       .  S
C973        C974   1.417       .  A
C974       Br975   1.931       .  S
C979        C980   1.424       .  A
C979        C984   1.410   1_655  A
C979       Br986   1.937   1_655  S
C980        C981   1.410       .  A
C981        C982   1.408       .  A
C981       Br988   1.940       .  S
C982        C983   1.426   1_655  A
C982       Br987   1.939       .  S
C983        C984   1.413       .  A
C984       Br985   1.939       .  S
C989        C990   1.415       .  A
C989        C994   1.410       .  A
C989       Br996   1.924       .  S
C990        C991   1.415       .  A
C991        C992   1.409       .  A
C991       Br998   1.934       .  S
C992        C993   1.414       .  A
C992       Br997   1.935       .  S
C993        C994   1.411       .  A
C994       Br995   1.935       .  S
C999       C1000   1.412       .  A
C999       C1004   1.406       .  A
C999      Br1006   1.938       .  S
C1000      C1001   1.416       .  A
C1001      C1002   1.409       .  A
C1001     Br1008   1.938       .  S
C1002      C1003   1.419       .  A
C1002     Br1007   1.937       .  S
C1003      C1004   1.418       .  A
C1004     Br1005   1.935       .  S
C1009      C1010   1.421       .  A
C1009      C1014   1.413       .  A
C1009     Br1016   1.934       .  S
C1010      C1011   1.412       .  A
C1011      C1012   1.404   1_455  A
C1011     Br1018   1.929   1_455  S
C1012      C1013   1.415       .  A
C1012     Br1017   1.940       .  S
C1013      C1014   1.410   1_655  A
C1014     Br1015   1.929       .  S
C1019      C1020   1.420       .  A
C1019      C1024   1.413       .  A
C1019     Br1026   1.935       .  S
C1020      C1021   1.422       .  A
C1021      C1022   1.416       .  A
C1021     Br1028   1.931       .  S
C1022      C1023   1.411   1_565  A
C1022     Br1027   1.933   1_565  S
C1023      C1024   1.410   1_545  A
C1024     Br1025   1.931   1_565  S
C1029      C1030   1.415       .  A
C1029      C1034   1.408       .  A
C1029     Br1036   1.937       .  S
C1030      C1031   1.417       .  A
C1031      C1032   1.410       .  A
C1031     Br1038   1.937       .  S
C1032      C1033   1.416       .  A
C1032     Br1037   1.934       .  S
C1033      C1034   1.416       .  A
C1034     Br1035   1.936       .  S
C1039      C1040   1.409       .  A
C1039      C1044   1.414       .  A
C1039     Br1046   1.923       .  S
C1040      C1041   1.404       .  A
C1041      C1042   1.402       .  A
C1041     Br1048   1.931       .  S
C1042      C1043   1.421       .  A
C1042     Br1047   1.935       .  S
C1043      C1044   1.414       .  A
C1044     Br1045   1.927       .  S
C1049      C1050   1.417       .  A
C1049      C1054   1.413       .  A
C1049     Br1056   1.927       .  S
C1050      C1051   1.422       .  A
C1051      C1052   1.412       .  A
C1051     Br1058   1.930       .  S
C1052      C1053   1.406       .  A
C1052     Br1057   1.933       .  S
C1053      C1054   1.410       .  A
C1054     Br1055   1.932       .  S
C1059      C1060   1.413   1_655  A
C1059      C1064   1.407       .  A
C1059     Br1066   1.933   1_655  S
C1060      C1061   1.412       .  A
C1061      C1062   1.409   1_455  A
C1061     Br1068   1.928       .  S
C1062      C1063   1.414       .  A
C1062     Br1067   1.933       .  S
C1063      C1064   1.410       .  A
C1064     Br1065   1.925   1_565  S
C1069      C1070   1.411       .  A
C1069      C1074   1.413       .  A
C1069     Br1076   1.925       .  S
C1070      C1071   1.406       .  A
C1071      C1072   1.399       .  A
C1071     Br1078   1.939       .  S
C1072      C1073   1.418       .  A
C1072     Br1077   1.929       .  S
C1073      C1074   1.411       .  A
C1074     Br1075   1.924       .  S
C1079      C1080   1.414       .  A
C1079      C1084   1.405   1_655  A
C1079     Br1086   1.933       .  S
C1080      C1081   1.423       .  A
C1081      C1082   1.414       .  A
C1081     Br1088   1.933       .  S
C1082      C1083   1.409       .  A
C1082     Br1087   1.932       .  S
C1083      C1084   1.413   1_655  A
C1084     Br1085   1.937       .  S
