geometry optimzed in LAMMPS
_audit_creation_date              2020-12-01 
_audit_creation_method            'lammps2cif' 
_symmetry_space_group_name_H-M    'P1' 
_symmetry_Int_Tables_number       1 
_symmetry_cell_setting            triclinic 
loop_ 
_symmetry_equiv_pos_as_xyz 
  x,y,z 
_cell_length_a                    42.21526158 
_cell_length_b                    42.27448553364122 
_cell_length_c                    42.19957999201124 
_cell_angle_alpha                 89.95957213757957 
_cell_angle_beta                  89.85805333477747 
_cell_angle_gamma                 90.01790257755195 
loop_ 
_atom_site_label 
_atom_site_type_symbol 
_atom_site_fract_x 
_atom_site_fract_y 
_atom_site_fract_z 
_atom_site_charge 
O1          O  0.71652599  0.53191639  0.76425710    -0.72400
O2          O  0.76818416  0.46547166  0.72050208    -0.73400
O3          O  0.71882759  0.46507255  0.76593668    -0.62000
O4          O  0.76553733  0.53233729  0.71863914    -0.70400
O5          O  0.80137851  0.53463074  0.75674177    -0.70000
O6          O  0.75464432  0.46674355  0.80432607    -0.61200
O7          O  0.80388081  0.46739153  0.75893187    -0.73700
O8          O  0.75205444  0.53378602  0.80273267    -0.72500
Cu9        Cu  0.74107431  0.49862585  0.74098991     1.04600
Cu10       Cu  0.77926533  0.50077313  0.78201849     1.04300
C11         C  0.72614099  0.54345008  0.79051760     0.93800
C12         C  0.79401840  0.45571842  0.73285607     0.92900
C13         C  0.72937376  0.45512254  0.79246319     0.85100
C14         C  0.79084816  0.54422656  0.73000902     0.91300
O15         O  0.50884734  0.77963618  0.80276686    -0.72400
O16         O  0.44508197  0.82991635  0.75263685    -0.73400
O17         O  0.44186795  0.78236497  0.80045863    -0.62000
O18         O  0.51249809  0.82713462  0.75535532    -0.70400
O19         O  0.51193532  0.79064390  0.71779092    -0.70000
O20         O  0.44208429  0.74549488  0.76330037    -0.61200
O21         O  0.44489992  0.79253092  0.71595179    -0.73700
O22         O  0.50884539  0.74330628  0.76497678    -0.72500
Cu23       Cu  0.47705876  0.80613401  0.77907516     1.04600
Cu24       Cu  0.47693902  0.76678325  0.73922453     1.04300
C25         C  0.51891234  0.75336463  0.79165101     0.93800
C26         C  0.43457289  0.81890970  0.72646219     0.92900
C27         C  0.43097577  0.75653194  0.78923352     0.85100
C28         C  0.52358312  0.81594640  0.72952825     0.91300
O29         O  0.80942586  0.77806053  0.44429776    -0.72400
O30         O  0.76143919  0.82648834  0.51102380    -0.73400
O31         O  0.80790337  0.77790506  0.51161373    -0.62000
O32         O  0.76328043  0.82693780  0.44389682    -0.70400
O33         O  0.72590862  0.78993051  0.44202328    -0.70000
O34         O  0.76929694  0.74237001  0.51126115    -0.61200
O35         O  0.72332860  0.79051153  0.50920937    -0.73700
O36         O  0.77172889  0.74170566  0.44455210    -0.72500
Cu37       Cu  0.78688829  0.80364157  0.47775662     1.04600
Cu38       Cu  0.74626239  0.76492079  0.47673813     1.04300
C39         C  0.79804549  0.75202370  0.43386656     0.93800
C40         C  0.73454155  0.81616900  0.52048964     0.92900
C41         C  0.79569393  0.75228505  0.52210057     0.85100
C42         C  0.73774015  0.81592369  0.43213991     0.91300
C43         C  0.34309835  0.88513276  0.30399400     0.03700
C44         C  0.34332410  0.91835592  0.30423807    -0.12500
C45         C  0.32210052  0.93517145  0.32365432     0.01200
C46         C  0.30094778  0.91855435  0.34319964    -0.11000
C47         C  0.30124470  0.88551621  0.34368673     0.03700
C48         C  0.32187822  0.86892055  0.32377388    -0.10400
H49         H  0.36057347  0.93108731  0.29007288     0.09200
H50         H  0.28508212  0.93130370  0.35887865     0.06800
H51         H  0.32193855  0.84327713  0.32433655     0.06600
C52         C  0.30902075  0.12054648  0.35336902     0.03700
C53         C  0.32862839  0.13735716  0.33236143    -0.12500
C54         C  0.35021467  0.12140788  0.31264335     0.01200
C55         C  0.35099972  0.08821767  0.31340217    -0.11000
C56         C  0.33035798  0.07112919  0.33303139     0.03700
C57         C  0.30939971  0.08741496  0.35302962    -0.10400
H58         H  0.32689651  0.16289752  0.33143339     0.09200
H59         H  0.36773241  0.07546746  0.29867491     0.06800
H60         H  0.29350261  0.07432689  0.36840428     0.06600
O61         O  0.45025054  0.25726269  0.18836722    -0.72400
O62         O  0.51531513  0.20978003  0.23739407    -0.73400
O63         O  0.51679217  0.25497083  0.18758510    -0.62000
O64         O  0.44904070  0.21243529  0.23757823    -0.70400
O65         O  0.44709149  0.17375867  0.20233198    -0.70000
O66         O  0.51607705  0.21594226  0.15228236    -0.61200
O67         O  0.51429616  0.17093144  0.20193983    -0.73700
O68         O  0.44893349  0.21910363  0.15247239    -0.72500
Cu69       Cu  0.48295163  0.23494437  0.21390240     1.04600
Cu70       Cu  0.48151756  0.19354100  0.17596249     1.04300
C71         C  0.43915958  0.24584268  0.16268676     0.93800
C72         C  0.52472662  0.18276781  0.22772330     0.92900
C73         C  0.52695568  0.24234105  0.16206226     0.85100
C74         C  0.43744888  0.18617959  0.22820509     0.91300
C75         C  0.62310727  0.88263505  0.29876211     0.03700
C76         C  0.62397602  0.91587340  0.29766178    -0.12500
C77         C  0.64595773  0.93280847  0.31595864     0.01200
C78         C  0.66681264  0.91629753  0.33574729    -0.11000
C79         C  0.66486225  0.88333318  0.33870344     0.03700
C80         C  0.64357754  0.86661288  0.31949865    -0.10400
H81         H  0.60693932  0.92860224  0.28334151     0.09200
H82         H  0.68381347  0.92932817  0.34984416     0.06800
H83         H  0.64222578  0.84108852  0.32142173     0.06600
C84         C  0.61698504  0.11896185  0.30413379     0.03700
C85         C  0.61855461  0.08595257  0.30308344    -0.12500
C86         C  0.63908360  0.06943070  0.32326275     0.01200
C87         C  0.65821095  0.08651004  0.34448016    -0.11000
C88         C  0.65610896  0.11965389  0.34624130     0.03700
C89         C  0.63586368  0.13575638  0.32542507    -0.10400
H90         H  0.60325531  0.07312582  0.28698063     0.09200
H91         H  0.67423605  0.07397150  0.36007728     0.06800
H92         H  0.63439433  0.16134504  0.32608202     0.06600
O93         O  0.75704893  0.17884701  0.44739709    -0.72400
O94         O  0.80279321  0.22300572  0.51774035    -0.73400
O95         O  0.75621409  0.17479406  0.51422671    -0.62000
O96         O  0.80362392  0.22750643  0.45041254    -0.70400
O97         O  0.76608641  0.26393647  0.45308663    -0.70000
O98         O  0.71817603  0.21095537  0.51518794    -0.61200
O99         O  0.76453997  0.25878715  0.51987329    -0.73700
O100        O  0.71974152  0.21562983  0.44853366    -0.72500
Cu101      Cu  0.78130907  0.19980396  0.48234736     1.04600
Cu102      Cu  0.74088074  0.23859565  0.48421286     1.04300
C103        C  0.73102542  0.19007863  0.43691270     0.93800
C104        C  0.79075788  0.24781651  0.53015912     0.92900
C105        C  0.72936204  0.18445784  0.52439147     0.85100
C106        C  0.79236711  0.25423570  0.44172981     0.91300
C107        C  0.66728794  0.87960965  0.62194270     0.03700
C108        C  0.64539735  0.86284023  0.64065768    -0.12500
C109        C  0.62477121  0.87891130  0.66119981     0.01200
C110        C  0.62738528  0.91179218  0.66426929    -0.11000
C111        C  0.64957400  0.92873960  0.64632447     0.03700
C112        C  0.66919502  0.91264996  0.62488998    -0.10400
H113        H  0.64365596  0.83736200  0.63841632     0.09200
H114        H  0.61130073  0.92444837  0.67980478     0.06800
H115        H  0.68497811  0.92600149  0.60962536     0.06600
C116        C  0.61910277  0.11389440  0.66068355     0.03700
C117        C  0.63737606  0.13040592  0.63818877    -0.12500
C118        C  0.66015599  0.11475661  0.61972413     0.01200
C119        C  0.66386563  0.08197870  0.62274274    -0.11000
C120        C  0.64540392  0.06502341  0.64445338     0.03700
C121        C  0.62394169  0.08113468  0.66412780    -0.10400
H122        H  0.63379481  0.15553826  0.63470090     0.09200
H123        H  0.68024892  0.06951605  0.60736867     0.06800
H124        H  0.61072019  0.06786930  0.68168373     0.06600
C125        C  0.30079958  0.88594933  0.61006231     0.03700
C126        C  0.30090725  0.91919888  0.60973917    -0.12500
C127        C  0.32120369  0.93626998  0.62984384     0.01200
C128        C  0.34236333  0.91974911  0.64940384    -0.11000
C129        C  0.34326185  0.88661907  0.64928144     0.03700
C130        C  0.32179006  0.86989467  0.63024068    -0.10400
H131        H  0.28570139  0.93177946  0.59337225     0.09200
H132        H  0.35860995  0.93275022  0.66438814     0.06800
H133        H  0.32190105  0.84426022  0.63060851     0.06600
C134        C  0.30543103  0.12406453  0.61133394     0.03700
C135        C  0.30580066  0.09091778  0.60971258    -0.12500
C136        C  0.32508156  0.07315981  0.63004842     0.01200
C137        C  0.34425946  0.08882841  0.65219422    -0.11000
C138        C  0.34435775  0.12194924  0.65378902     0.03700
C139        C  0.32442303  0.13937987  0.63384961    -0.10400
H140        H  0.29149196  0.07886842  0.59216892     0.09200
H141        H  0.35954685  0.07532627  0.66774218     0.06800
H142        H  0.32417202  0.16495400  0.63557011     0.06600
O143        O  0.51581974  0.25803178  0.76863921    -0.72400
O144        O  0.45125141  0.21141896  0.71833245    -0.73400
O145        O  0.44905396  0.25940072  0.76495851    -0.62000
O146        O  0.51819676  0.21021649  0.72252236    -0.70400
O147        O  0.51424077  0.17280572  0.75933978    -0.70000
O148        O  0.44686243  0.22339382  0.80299877    -0.61200
O149        O  0.44734487  0.17501677  0.75594888    -0.73700
O150        O  0.51390859  0.22126983  0.80608284    -0.72500
Cu151      Cu  0.48364584  0.23600059  0.74232461     1.04600
Cu152      Cu  0.48044758  0.19683226  0.78245328     1.04300
C153        C  0.52539377  0.24705123  0.79511730     0.93800
C154        C  0.43928249  0.18570401  0.72877725     0.92900
C155        C  0.43712472  0.24933815  0.79094385     0.85100
C156        C  0.52700934  0.18377114  0.73418142     0.91300
O157        O  0.19972748  0.18159979  0.51400343    -0.72400
O158        O  0.15182909  0.22575521  0.44502730    -0.73400
O159        O  0.20074960  0.17976108  0.44724907    -0.62000
O160        O  0.15059921  0.22752928  0.51244345    -0.70400
O161        O  0.18681585  0.26542759  0.51220362    -0.70000
O162        O  0.23627667  0.21833613  0.44670459    -0.61200
O163        O  0.18752801  0.26413764  0.44521155    -0.73700
O164        O  0.23544492  0.21992185  0.51345906    -0.72500
Cu165      Cu  0.17439124  0.20236088  0.47968681     1.04600
Cu166      Cu  0.21269440  0.24329139  0.47933778     1.04300
C167        C  0.22537303  0.19364756  0.52453098     0.93800
C168        C  0.16215869  0.25200146  0.43413441     0.92900
C169        C  0.22667596  0.19141980  0.43685254     0.85100
C170        C  0.16088151  0.25401851  0.52281805     0.91300
C171        C  0.65653967  0.36390376  0.86333213     0.03700
C172        C  0.65898362  0.36199791  0.89633726    -0.12500
C173        C  0.64005434  0.34067790  0.91343394     0.01200
C174        C  0.61943486  0.32037646  0.89707167    -0.11000
C175        C  0.61637559  0.32251836  0.86408053     0.03700
C176        C  0.63537260  0.34406099  0.84727805    -0.10400
H177        H  0.67472981  0.37797077  0.90877382     0.09200
H178        H  0.60486408  0.30375258  0.91015437     0.06800
H179        H  0.63339381  0.34572348  0.82172494     0.06600
C180        C  0.66268285  0.35558716  0.10108093     0.03700
C181        C  0.66376626  0.35591231  0.06776985    -0.12500
C182        C  0.64547854  0.33451506  0.05012498     0.01200
C183        C  0.62553297  0.31325731  0.06602296    -0.11000
C184        C  0.62387850  0.31324465  0.09908210     0.03700
C185        C  0.64260739  0.33410297  0.11656933    -0.10400
H186        H  0.67801343  0.37345460  0.05557466     0.09200
H187        H  0.61056355  0.29727952  0.05265533     0.06800
H188        H  0.64075823  0.33427113  0.14219640     0.06600
O189        O  0.76334400  0.53699969  0.23807932    -0.72400
O190        O  0.71654824  0.46664191  0.19504078    -0.73400
O191        O  0.76403180  0.47013189  0.24196526    -0.62000
O192        O  0.71548796  0.53348880  0.19159604    -0.70400
O193        O  0.75190404  0.53179265  0.15348247    -0.70000
O194        O  0.80098858  0.46857304  0.20457213    -0.61200
O195        O  0.75336179  0.46541656  0.15758807    -0.73700
O196        O  0.79996825  0.53544276  0.20046749    -0.72500
Cu197      Cu  0.73858602  0.50189094  0.21799462     1.04600
Cu198      Cu  0.77788343  0.50028543  0.17775145     1.04300
C199        C  0.78913432  0.54744107  0.22603774     0.93800
C200        C  0.72738749  0.45510223  0.16922473     0.92900
C201        C  0.79003213  0.45904842  0.23118133     0.85100
C202        C  0.72579539  0.54231873  0.16456814     0.91300
C203        C  0.64558100  0.63079914  0.85937892     0.03700
C204        C  0.64727571  0.63178086  0.89254246    -0.12500
C205        C  0.62852290  0.65300101  0.90984611     0.01200
C206        C  0.60751268  0.67313204  0.89390838    -0.11000
C207        C  0.60523984  0.67224819  0.86077210     0.03700
C208        C  0.62479487  0.65142072  0.84360601    -0.10400
H209        H  0.66304783  0.61583125  0.90498789     0.09200
H210        H  0.59232695  0.68884745  0.90739048     0.06800
H211        H  0.62378140  0.65123322  0.81795089     0.06600
C212        C  0.64296540  0.62583543  0.09606697     0.03700
C213        C  0.64448408  0.62780328  0.06289621    -0.12500
C214        C  0.62577547  0.64973064  0.04645755     0.01200
C215        C  0.60645930  0.67070644  0.06341042    -0.11000
C216        C  0.60415121  0.66857454  0.09653602     0.03700
C217        C  0.62247632  0.64605617  0.11265110    -0.10400
H218        H  0.66037494  0.61245807  0.04981510     0.09200
H219        H  0.59271424  0.68823493  0.05070995     0.06800
H220        H  0.62065772  0.64410332  0.13820101     0.06600
C221        C  0.29854350  0.64003027  0.86035138     0.03700
C222        C  0.31742720  0.66169185  0.84356868    -0.12500
C223        C  0.34067168  0.67965948  0.85907539     0.01200
C224        C  0.34272205  0.67809300  0.89222796    -0.11000
C225        C  0.32277739  0.65791738  0.90950042     0.03700
C226        C  0.30129479  0.63839582  0.89346656    -0.10400
H227        H  0.31478861  0.66367534  0.81811623     0.09200
H228        H  0.36013028  0.69219562  0.90469036     0.06800
H229        H  0.28729179  0.62149893  0.90680135     0.06600
C230        C  0.35043427  0.67264098  0.09658763     0.03700
C231        C  0.32951368  0.65172277  0.11188743    -0.12500
C232        C  0.30729652  0.63402130  0.09455939     0.01200
C233        C  0.30499375  0.63890713  0.06176356    -0.11000
C234        C  0.32604216  0.65924559  0.04606280     0.03700
C235        C  0.34882531  0.67587860  0.06350398    -0.10400
H236        H  0.33083729  0.64895379  0.13735646     0.09200
H237        H  0.28732758  0.62624899  0.04818093     0.06800
H238        H  0.36521880  0.69143125  0.05128135     0.06600
O239        O  0.44610446  0.77716122  0.15924785    -0.72400
O240        O  0.51386336  0.82496235  0.20582961    -0.73400
O241        O  0.51261869  0.77758961  0.15761809    -0.62000
O242        O  0.44669188  0.82461075  0.20710484    -0.70400
O243        O  0.44796055  0.78758287  0.24414312    -0.70000
O244        O  0.51369137  0.74040997  0.19489312    -0.61200
O245        O  0.51480168  0.78739453  0.24237946    -0.73700
O246        O  0.44684883  0.74018987  0.19642012    -0.72500
Cu247      Cu  0.47980817  0.80244548  0.18119218     1.04600
Cu248      Cu  0.48084393  0.76264664  0.22075492     1.04300
C249        C  0.43598905  0.75086067  0.17026304     0.93800
C250        C  0.52488462  0.81382197  0.23175317     0.92900
C251        C  0.52307926  0.75136076  0.16829735     0.85100
C252        C  0.43692430  0.81364190  0.23361487     0.91300
C253        C  0.34621832  0.32753746  0.85823869     0.03700
C254        C  0.34422702  0.32535694  0.89138006    -0.12500
C255        C  0.32070131  0.34173783  0.90814573     0.01200
C256        C  0.29961491  0.36123457  0.89161856    -0.11000
C257        C  0.30252465  0.36540434  0.85876193     0.03700
C258        C  0.32510683  0.34751802  0.84205606    -0.10400
H259        H  0.36122537  0.31107365  0.90421285     0.09200
H260        H  0.28136215  0.37384751  0.90455135     0.06800
H261        H  0.32667670  0.34961221  0.81652639     0.06600
C262        C  0.30457004  0.35914596  0.09619444     0.03700
C263        C  0.32729044  0.34046310  0.11146951    -0.12500
C264        C  0.34867503  0.32209196  0.09386163     0.01200
C265        C  0.34680271  0.32205319  0.06070632    -0.11000
C266        C  0.32408804  0.34058141  0.04509779     0.03700
C267        C  0.30273106  0.35871771  0.06303360    -0.10400
H268        H  0.32863373  0.34062493  0.13711794     0.09200
H269        H  0.36367030  0.30834055  0.04702766     0.06800
H270        H  0.28526677  0.37325751  0.05115583     0.06600
C271        C  0.85766722  0.35062268  0.67355204     0.03700
C272        C  0.84058958  0.33016817  0.65392732    -0.12500
C273        C  0.85631148  0.30904012  0.63370014     0.01200
C274        C  0.88955944  0.30789738  0.63410355    -0.11000
C275        C  0.90695377  0.32826272  0.65379693     0.03700
C276        C  0.89080402  0.34933846  0.67376339    -0.10400
H277        H  0.81496507  0.33177337  0.65340318     0.09200
H278        H  0.90198830  0.29228089  0.61797435     0.06800
H279        H  0.90402069  0.36605611  0.68803157     0.06600
C280        C  0.09228312  0.36074645  0.66333330     0.03700
C281        C  0.05945013  0.35666219  0.66624427    -0.12500
C282        C  0.04374593  0.33339832  0.64852043     0.01200
C283        C  0.06103998  0.31483654  0.62702477    -0.11000
C284        C  0.09401026  0.31820177  0.62427866     0.03700
C285        C  0.10951317  0.34068708  0.64317495    -0.10400
H286        H  0.04594583  0.37226592  0.68152041     0.09200
H287        H  0.04867470  0.29812338  0.61203767     0.06800
H288        H  0.13499250  0.34333820  0.64140993     0.06600
O289        O  0.18868705  0.53430779  0.72097621    -0.72400
O290        O  0.23451653  0.46566196  0.76670861    -0.73400
O291        O  0.18628146  0.46748954  0.72083670    -0.62000
O292        O  0.23671354  0.53268697  0.76723980    -0.70400
O293        O  0.20024019  0.53462302  0.80492782    -0.70000
O294        O  0.15032255  0.46808374  0.75916783    -0.61200
O295        O  0.19901609  0.46765639  0.80563623    -0.73700
O296        O  0.15175630  0.53534721  0.75838188    -0.72500
Cu297      Cu  0.21278371  0.50001872  0.74264870     1.04600
Cu298      Cu  0.17401518  0.50145845  0.78337006     1.04300
C299        C  0.16304182  0.54575231  0.73224440     0.93800
C300        C  0.22411145  0.45594573  0.79339387     0.92900
C301        C  0.16045970  0.45712579  0.73281364     0.85100
C302        C  0.22661306  0.54409567  0.79339970     0.91300
C303        C  0.85863911  0.64258512  0.66220673     0.03700
C304        C  0.84246152  0.66352453  0.64217567    -0.12500
C305        C  0.85909667  0.68359357  0.62165046     0.01200
C306        C  0.89227281  0.68324069  0.62162445    -0.11000
C307        C  0.90882193  0.66259941  0.64160965     0.03700
C308        C  0.89190624  0.64233098  0.66189819    -0.10400
H309        H  0.81678305  0.66368110  0.64193560     0.09200
H310        H  0.90520503  0.69811337  0.60512718     0.06800
H311        H  0.90465049  0.62579091  0.67678043     0.06600
C312        C  0.09535577  0.63748099  0.65647135     0.03700
C313        C  0.11168371  0.65683369  0.63482862    -0.12500
C314        C  0.09513762  0.67724037  0.61433262     0.01200
C315        C  0.06196993  0.67901457  0.61687653    -0.11000
C316        C  0.04557743  0.66059648  0.63925052     0.03700
C317        C  0.06237406  0.63977302  0.65880995    -0.10400
H318        H  0.13729662  0.65566536  0.63379449     0.09200
H319        H  0.04872742  0.69412131  0.60093899     0.06800
H320        H  0.04967215  0.62489782  0.67548560     0.06600
O321        O  0.18957810  0.74013805  0.44286725    -0.72400
O322        O  0.23654809  0.78813971  0.50923382    -0.73400
O323        O  0.18871673  0.74117821  0.50967823    -0.62000
O324        O  0.23716182  0.78728941  0.44263571    -0.70400
O325        O  0.19962586  0.82400430  0.44094651    -0.70000
O326        O  0.15211866  0.77863476  0.50984647    -0.61200
O327        O  0.20050826  0.82615645  0.50806669    -0.73700
O328        O  0.15204267  0.77667540  0.44230537    -0.72500
Cu329      Cu  0.21419456  0.76290937  0.47616545     1.04600
Cu330      Cu  0.17470400  0.80267376  0.47531695     1.04300
C331        C  0.16340385  0.75060415  0.43196267     0.93800
C332        C  0.22675029  0.81515922  0.51847922     0.92900
C333        C  0.16270189  0.75236622  0.52041084     0.85100
C334        C  0.22608950  0.81298557  0.43124236     0.91300
C335        C  0.86149290  0.64145972  0.29483310     0.03700
C336        C  0.84640393  0.66349549  0.31456523    -0.12500
C337        C  0.86400840  0.68318764  0.33470780     0.01200
C338        C  0.89720248  0.68232847  0.33308465    -0.11000
C339        C  0.91261692  0.66236283  0.31139746     0.03700
C340        C  0.89465712  0.64156589  0.29278213    -0.10400
H341        H  0.82075594  0.66430509  0.31529277     0.09200
H342        H  0.91114444  0.69654919  0.34921792     0.06800
H343        H  0.90657554  0.62498608  0.27723028     0.06600
C344        C  0.09891901  0.67520858  0.33691524     0.03700
C345        C  0.06576012  0.67657492  0.33522249    -0.12500
C346        C  0.04927784  0.65862710  0.31281303     0.01200
C347        C  0.06609078  0.63976324  0.29134368    -0.11000
C348        C  0.09922707  0.63758986  0.29292352     0.03700
C349        C  0.11551309  0.65562744  0.31565843    -0.10400
H350        H  0.05262821  0.69089057  0.35202238     0.09200
H351        H  0.05321316  0.62623200  0.27379178     0.06800
H352        H  0.14106895  0.65396458  0.31724803     0.06600
C353        C  0.86025821  0.32857234  0.34794471     0.03700
C354        C  0.84366201  0.35014314  0.32888707    -0.12500
C355        C  0.85988537  0.36997122  0.30769636     0.01200
C356        C  0.89285471  0.36772815  0.30504193    -0.11000
C357        C  0.90978199  0.34660276  0.32415436     0.03700
C358        C  0.89340688  0.32705796  0.34556862    -0.10400
H359        H  0.81807773  0.35159866  0.33057773     0.09200
H360        H  0.90545099  0.38316791  0.28880636     0.06800
H361        H  0.90651359  0.31092259  0.36058544     0.06600
C362        C  0.09601266  0.36033704  0.29400986     0.03700
C363        C  0.11243012  0.34070807  0.31516543    -0.12500
C364        C  0.09595597  0.32126661  0.33644449     0.01200
C365        C  0.06286515  0.32017589  0.33539743    -0.11000
C366        C  0.04605551  0.33938761  0.31422180     0.03700
C367        C  0.06272985  0.35967733  0.29371545    -0.10400
H368        H  0.13808702  0.34146269  0.31593512     0.09200
H369        H  0.05009324  0.30527150  0.35199591     0.06800
H370        H  0.04982350  0.37575109  0.27845923     0.06600
O371        O  0.19200387  0.46576888  0.23479177    -0.72400
O372        O  0.24111246  0.53173395  0.18810307    -0.73400
O373        O  0.19199206  0.53264175  0.23340634    -0.62000
O374        O  0.24134298  0.46490728  0.18921725    -0.70400
O375        O  0.20574496  0.46372894  0.15069120    -0.70000
O376        O  0.15626248  0.53167977  0.19483834    -0.61200
O377        O  0.20576715  0.53083346  0.14923279    -0.73700
O378        O  0.15606211  0.46476172  0.19665924    -0.72500
Cu379      Cu  0.21783969  0.49872945  0.21268945     1.04600
Cu380      Cu  0.17970424  0.49766755  0.17145840     1.04300
C381        C  0.16595394  0.45526014  0.22365596     0.93800
C382        C  0.23104042  0.54197543  0.16154789     0.92900
C383        C  0.16629079  0.54268556  0.22112805     0.85100
C384        C  0.23171333  0.45395676  0.16273459     0.91300
C385        C  0.13478930  0.40405018  0.29102526    -0.11700
C386        C  0.11377657  0.38396681  0.27502570     0.05300
C387        C  0.10922708  0.38792969  0.24206803    -0.07000
C388        C  0.12584323  0.41198907  0.22609455    -0.07800
C389        C  0.14725582  0.43183153  0.24207860    -0.02300
C390        C  0.15122455  0.42806481  0.27518097     0.04500
N391        N  0.17063157  0.44914294  0.29342872     0.67000
H392        H  0.13759027  0.40177265  0.31645696     0.15900
H393        H  0.12286849  0.41443872  0.20071891     0.15600
N394        N  0.08900063  0.36711716  0.22429075     0.74700
O395        O  0.16598147  0.47861396  0.29202850    -0.38700
O396        O  0.18851798  0.43824222  0.31473933    -0.38700
O397        O  0.07420471  0.37734064  0.20042148    -0.39400
O398        O  0.08862107  0.33782427  0.23011874    -0.39500
C399        C  0.95871125  0.33954519  0.29231598    -0.11700
C400        C  0.94470684  0.34543461  0.32194537     0.05300
C401        C  0.96411513  0.34931355  0.34890128    -0.07000
C402        C  0.99699605  0.34643691  0.34558748    -0.07800
C403        C  0.01105758  0.34037451  0.31601900    -0.02300
C404        C  0.99166831  0.33665540  0.28900592     0.04500
N405        N  0.00478657  0.32876968  0.25851599     0.67000
H406        H  0.94371792  0.33611690  0.27178972     0.15900
H407        H  0.01191036  0.35008363  0.36613528     0.15600
N408        N  0.95108159  0.35737038  0.37939707     0.74700
O409        O  0.02731923  0.30925862  0.25632738    -0.38700
O410        O  0.99150806  0.33835105  0.23350992    -0.38700
O411        O  0.96419786  0.34755408  0.40439811    -0.39400
O412        O  0.92879106  0.37716200  0.38160720    -0.39500
C413        C  0.16095021  0.59758105  0.24031110    -0.11700
C414        C  0.14808040  0.56719549  0.23764391     0.05300
C415        C  0.11895194  0.56017850  0.25236677    -0.07000
C416        C  0.10374087  0.58360296  0.27015689    -0.07800
C417        C  0.11619701  0.61438080  0.27258253    -0.02300
C418        C  0.14503173  0.62161088  0.25684512     0.04500
N419        N  0.15787924  0.65312205  0.25653243     0.67000
H420        H  0.18336567  0.60284010  0.22860186     0.15900
H421        H  0.08189264  0.57754951  0.28246534     0.15600
N422        N  0.10521476  0.52916359  0.25053822     0.74700
O423        O  0.18750687  0.65727414  0.25611359    -0.38700
O424        O  0.13988791  0.67668651  0.25289857    -0.38700
O425        O  0.09454583  0.51603889  0.27523694    -0.39400
O426        O  0.09983031  0.51671614  0.22391854    -0.39500
C427        C  0.96320711  0.63260696  0.31354774    -0.11700
C428        C  0.94764617  0.66169540  0.30981446     0.05300
C429        C  0.96569751  0.68970406  0.30652021    -0.07000
C430        C  0.99879343  0.68802556  0.30840227    -0.07800
C431        C  0.01429906  0.65898648  0.31243842    -0.02300
C432        C  0.99631465  0.63085549  0.31505540     0.04500
N433        N  0.01105172  0.60063734  0.32045855     0.67000
H434        H  0.94939337  0.61120772  0.31661896     0.15900
H435        H  0.01268807  0.70941412  0.30560749     0.15600
N436        N  0.95096155  0.71965279  0.29994618     0.74700
O437        O  0.03397592  0.59812893  0.33945522    -0.38700
O438        O  0.99900252  0.57584304  0.30896284    -0.38700
O439        O  0.96292145  0.74490355  0.31050084    -0.39400
O440        O  0.92848674  0.72134530  0.28033624    -0.39500
C441        C  0.15492516  0.69998739  0.40314132    -0.11700
C442        C  0.14645678  0.73188040  0.40747381     0.05300
C443        C  0.12242706  0.74486810  0.38818161    -0.07000
C444        C  0.10777644  0.72604894  0.36519533    -0.07800
C445        C  0.11580955  0.69402384  0.36134707    -0.02300
C446        C  0.13955416  0.68076725  0.38088741     0.04500
N447        N  0.14740925  0.64770517  0.37958684     0.67000
H448        H  0.17292247  0.68944907  0.41805658     0.15900
H449        H  0.08980731  0.73660447  0.35023250     0.15600
N450        N  0.11276474  0.77714088  0.39121852     0.74700
O451        O  0.17577363  0.63890396  0.38301953    -0.38700
O452        O  0.12575940  0.62710710  0.37888514    -0.38700
O453        O  0.11894482  0.79645370  0.36924606    -0.39400
O454        O  0.09253873  0.78450768  0.41200899    -0.39500
C455        C  0.10386315  0.72816041  0.58510549    -0.11700
C456        C  0.11230443  0.69633473  0.58998307     0.05300
C457        C  0.13707913  0.68331814  0.57150748    -0.07000
C458        C  0.15349769  0.70241779  0.54995369    -0.07800
C459        C  0.14486957  0.73405555  0.54471061    -0.02300
C460        C  0.11934997  0.74681672  0.56231253     0.04500
N461        N  0.10868113  0.77851963  0.55734148     0.67000
H462        H  0.08494625  0.73864924  0.59895525     0.15900
H463        H  0.17228246  0.69178616  0.53603753     0.15600
N464        N  0.14428291  0.65022809  0.57238977     0.74700
O465        O  0.08945908  0.78431612  0.53522469    -0.38700
O466        O  0.11400028  0.79935596  0.57804904    -0.38700
O467        O  0.12273968  0.63040154  0.56655226    -0.39400
O468        O  0.17276790  0.64115614  0.57293390    -0.39500
C469        C  0.96070291  0.68987760  0.64502560    -0.11700
C470        C  0.94383074  0.66163809  0.64041236     0.05300
C471        C  0.96057086  0.63306688  0.63554904    -0.07000
C472        C  0.99374949  0.63340187  0.63634512    -0.07800
C473        C  0.01061255  0.66161576  0.64098729    -0.02300
C474        C  0.99391770  0.69022092  0.64562718     0.04500
N475        N  0.01015827  0.71944118  0.65201424     0.67000
H476        H  0.94783631  0.71167535  0.64917823     0.15900
H477        H  0.00662058  0.61163874  0.63202730     0.15600
N478        N  0.94446426  0.60394285  0.62838137     0.74700
O479        O  0.99892370  0.74530521  0.64215811    -0.38700
O480        O  0.03381036  0.71991406  0.67026438    -0.38700
O481        O  0.92121374  0.60376659  0.60961550    -0.39400
O482        O  0.95571954  0.57790259  0.63773847    -0.39500
C483        C  0.10901226  0.61420303  0.70894447    -0.11700
C484        C  0.11257244  0.61390549  0.67587017     0.05300
C485        C  0.13261090  0.59121819  0.66171722    -0.07000
C486        C  0.14964062  0.57034237  0.68091495    -0.07800
C487        C  0.14615680  0.57044292  0.71400672    -0.02300
C488        C  0.12561831  0.59282278  0.72824995     0.04500
N489        N  0.12212173  0.59500194  0.76204650     0.67000
H490        H  0.09377233  0.63173507  0.71985860     0.15900
H491        H  0.16448271  0.55267908  0.66966974     0.15600
N492        N  0.13400956  0.58741214  0.62795710     0.74700
O493        O  0.14630771  0.59590020  0.77956401    -0.38700
O494        O  0.09528585  0.60070693  0.77401594    -0.38700
O495        O  0.15986501  0.58026671  0.61467473    -0.39400
O496        O  0.10864470  0.58562807  0.61228209    -0.39500
C497        C  0.14671984  0.42964194  0.68276112    -0.11700
C498        C  0.14233170  0.43249213  0.71564099     0.05300
C499        C  0.12030187  0.41238817  0.73097161    -0.07000
C500        C  0.10364344  0.38983636  0.71327157    -0.07800
C501        C  0.10851248  0.38666975  0.68051558    -0.02300
C502        C  0.12968879  0.40749732  0.66491033     0.04500
N503        N  0.13322084  0.40741825  0.63097597     0.67000
H504        H  0.16276606  0.44557955  0.67059210     0.15900
H505        H  0.08758321  0.37387880  0.72541992     0.15600
N506        N  0.11540649  0.41359476  0.76455827     0.74700
O507        O  0.10925282  0.40454495  0.61336645    -0.38700
O508        O  0.15963413  0.41402681  0.61852232    -0.38700
O509        O  0.08770424  0.41621728  0.77556333    -0.39400
O510        O  0.13802412  0.40762593  0.78313419    -0.39500
C511        C  0.95950122  0.32723703  0.68016822    -0.11700
C512        C  0.94199725  0.32926838  0.65199394     0.05300
C513        C  0.95817894  0.33203944  0.62271270    -0.07000
C514        C  0.99133717  0.33202057  0.62237256    -0.07800
C515        C  0.00885882  0.33020405  0.65051565    -0.02300
C516        C  0.99274382  0.32746044  0.67984216     0.04500
N517        N  0.00958951  0.32407602  0.70925563     0.67000
H518        H  0.94712918  0.32467857  0.70255945     0.15900
H519        H  0.00360309  0.33502169  0.59997703     0.15600
N520        N  0.94152460  0.33656236  0.59336966     0.74700
O521        O  0.99829404  0.33557506  0.73447215    -0.38700
O522        O  0.03405031  0.30696859  0.71078804    -0.38700
O523        O  0.91877416  0.35587645  0.59178975    -0.39400
O524        O  0.95195772  0.32429015  0.56815177    -0.39500
C525        C  0.23500852  0.40743539  0.12689219    -0.11700
C526        C  0.25068382  0.42976156  0.14589622     0.05300
C527        C  0.28401112  0.42802608  0.14904953    -0.07000
C528        C  0.30056705  0.40367336  0.13383037    -0.07800
C529        C  0.28494426  0.38152856  0.11469219    -0.02300
C530        C  0.25166006  0.38316354  0.11140427     0.04500
N531        N  0.23440702  0.36007619  0.09325690     0.67000
H532        H  0.20945017  0.40837495  0.12479057     0.15900
H533        H  0.32617852  0.40301192  0.13556957     0.15600
N534        N  0.30166809  0.45175435  0.16581896     0.74700
O535        O  0.24286577  0.33142936  0.09323407    -0.38700
O536        O  0.20887793  0.36763374  0.07969173    -0.38700
O537        O  0.32539635  0.44391026  0.18219451    -0.39400
O538        O  0.29690971  0.48069599  0.16014316    -0.39500
C539        C  0.26784474  0.38042224  0.81342095    -0.11700
C540        C  0.28237769  0.38893226  0.84210168     0.05300
C541        C  0.27698129  0.41956870  0.85470180    -0.07000
C542        C  0.25597303  0.44002094  0.83925308    -0.07800
C543        C  0.24190502  0.43156329  0.81051210    -0.02300
C544        C  0.24799517  0.40151959  0.79717198     0.04500
N545        N  0.23403512  0.39190030  0.76759159     0.67000
H546        H  0.27156078  0.35694627  0.80383731     0.15900
H547        H  0.25218166  0.46359181  0.84864009     0.15600
N548        N  0.29408980  0.43108069  0.88178911     0.74700
O549        O  0.24817178  0.37232076  0.74995021    -0.38700
O550        O  0.20648095  0.40075705  0.76017609    -0.38700
O551        O  0.32352481  0.42632021  0.88407112    -0.39400
O552        O  0.28083046  0.44963807  0.90113635    -0.39500
C553        C  0.31991574  0.36931851  0.95982682    -0.11700
C554        C  0.31967679  0.34057348  0.94320879     0.05300
C555        C  0.32072855  0.31175647  0.96024290    -0.07000
C556        C  0.32267002  0.31258379  0.99341161    -0.07800
C557        C  0.32318183  0.34136429  0.01000553    -0.02300
C558        C  0.32204789  0.37015514  0.99291126     0.04500
N559        N  0.32456627  0.40032928  0.00844062     0.67000
H560        H  0.31997579  0.39142336  0.94679715     0.15900
H561        H  0.32288853  0.29051945  0.00650089     0.15600
N562        N  0.31896865  0.28163005  0.94448191     0.74700
O563        O  0.34468670  0.40451318  0.03012625    -0.38700
O564        O  0.30940360  0.42385068  0.99797996    -0.38700
O565        O  0.33328431  0.25795164  0.95574901    -0.39400
O566        O  0.30066846  0.27777054  0.92118139    -0.39500
C567        C  0.26149466  0.55863248  0.11459693    -0.11700
C568        C  0.24935144  0.56619878  0.14452517     0.05300
C569        C  0.25527677  0.59636103  0.15758732    -0.07000
C570        C  0.27324051  0.61824669  0.14024118    -0.07800
C571        C  0.28687120  0.61029363  0.11087446    -0.02300
C572        C  0.28096088  0.57983918  0.09800057     0.04500
N573        N  0.29575477  0.56928513  0.06918868     0.67000
H574        H  0.25719455  0.53530647  0.10483808     0.15900
H575        H  0.27699056  0.64159560  0.15011081     0.15600
N576        N  0.24268689  0.60556248  0.18787037     0.74700
O577        O  0.32519664  0.57276773  0.06517765    -0.38700
O578        O  0.28031390  0.55275188  0.04967861    -0.38700
O579        O  0.24862645  0.58928403  0.21221204    -0.39400
O580        O  0.23075852  0.63273007  0.19129699    -0.39500
C581        C  0.41064332  0.69913526  0.15839519    -0.11700
C582        C  0.41267355  0.73175551  0.15212873     0.05300
C583        C  0.39437596  0.74457068  0.12715255    -0.07000
C584        C  0.37508638  0.72456306  0.10905423    -0.07800
C585        C  0.37322350  0.69196030  0.11521094    -0.02300
C586        C  0.39166665  0.67901928  0.14002710     0.04500
N587        N  0.39264601  0.64552654  0.14602852     0.67000
H588        H  0.42513080  0.68882404  0.17686701     0.15900
H589        H  0.36051798  0.73484021  0.09061376     0.15600
N590        N  0.39420107  0.77783337  0.12034246     0.74700
O591        O  0.39399277  0.62618088  0.12328360    -0.38700
O592        O  0.39576683  0.63535094  0.17398778    -0.38700
O593        O  0.39551873  0.78727392  0.09197780    -0.39400
O594        O  0.38773784  0.79742188  0.14198085    -0.39500
C595        C  0.29233012  0.60114304  0.81689964    -0.11700
C596        C  0.27863611  0.61697423  0.84277037     0.05300
C597        C  0.24750240  0.60883744  0.85230111    -0.07000
C598        C  0.23142500  0.58456985  0.83622394    -0.07800
C599        C  0.24525618  0.56863818  0.81037927    -0.02300
C600        C  0.27618373  0.57726967  0.80076830     0.04500
N601        N  0.29209480  0.56153733  0.77528322     0.67000
H602        H  0.31638846  0.60655679  0.80971398     0.15900
H603        H  0.20750004  0.57874498  0.84350247     0.15600
N604        N  0.23147125  0.62549833  0.87735570     0.74700
O605        O  0.30028211  0.57697605  0.75099765    -0.38700
O606        O  0.30228143  0.53373235  0.77912204    -0.38700
O607        O  0.23408694  0.65514770  0.87981546    -0.39400
O608        O  0.21210092  0.61111532  0.89508909    -0.39500
C609        C  0.29693511  0.66628794  0.96137780    -0.11700
C610        C  0.32417267  0.65749519  0.94445864     0.05300
C611        C  0.35244845  0.65061507  0.96098545    -0.07000
C612        C  0.35266991  0.65293419  0.99414413    -0.07800
C613        C  0.32533032  0.66142802  0.01110136    -0.02300
C614        C  0.29720297  0.66876107  0.99451173     0.04500
N615        N  0.26918847  0.67959596  0.01074071     0.67000
H616        H  0.27558435  0.67231476  0.94849822     0.15900
H617        H  0.37396713  0.64666411  0.00698884     0.15600
N618        N  0.38058976  0.64012173  0.94474918     0.74700
O619        O  0.27143541  0.69724246  0.03476130    -0.38700
O620        O  0.24213113  0.67439358  0.99916764    -0.38700
O621        O  0.40758512  0.64601651  0.95613496    -0.39400
O622        O  0.37860423  0.62213334  0.92096228    -0.39500
C623        C  0.53322408  0.71801887  0.12195339    -0.11700
C624        C  0.54513102  0.73270218  0.14914669     0.05300
C625        C  0.57631482  0.72641268  0.15925325    -0.07000
C626        C  0.59496213  0.70535846  0.14157011    -0.07800
C627        C  0.58297316  0.69007769  0.11453153    -0.02300
C628        C  0.55140859  0.69610174  0.10494188     0.04500
N629        N  0.53681058  0.67889407  0.07944837     0.67000
H630        H  0.50884712  0.72221170  0.11508097     0.15900
H631        H  0.61925076  0.70121176  0.14869442     0.15600
N632        N  0.58945093  0.74131316  0.18696874     0.74700
O633        O  0.54103511  0.64944258  0.07681979    -0.38700
O634        O  0.51638970  0.69218326  0.06215276    -0.38700
O635        O  0.61084711  0.72760539  0.20268806    -0.39400
O636        O  0.58168007  0.76917820  0.19441802    -0.39500
C637        C  0.62112543  0.62455806  0.96038796    -0.11700
C638        C  0.62946644  0.65265961  0.94481290     0.05300
C639        C  0.63648661  0.68004854  0.96272510    -0.07000
C640        C  0.63450265  0.67857362  0.99591292    -0.07800
C641        C  0.62606467  0.65044500  0.01144689    -0.02300
C642        C  0.61880598  0.62322414  0.99345351     0.04500
N643        N  0.60738991  0.59473292  0.00819244     0.67000
H644        H  0.61494981  0.60387150  0.94654716     0.15900
H645        H  0.64041141  0.69926997  0.00984046     0.15600
N646        N  0.64645903  0.70905544  0.94781650     0.74700
O647        O  0.58683030  0.59621683  0.02991682    -0.38700
O648        O  0.61432163  0.56809476  0.99657908    -0.38700
O649        O  0.64070475  0.73531299  0.96085710    -0.39400
O650        O  0.66383698  0.70849576  0.92342843    -0.39500
C651        C  0.80009590  0.57874120  0.27454356    -0.11700
C652        C  0.80687219  0.57290482  0.24247224     0.05300
C653        C  0.83176148  0.58994446  0.22772555    -0.07000
C654        C  0.84924960  0.61191746  0.24531985    -0.07800
C655        C  0.84266546  0.61743404  0.27744717    -0.02300
C656        C  0.81803842  0.60014861  0.29236442     0.04500
N657        N  0.81209237  0.60255108  0.32584373     0.67000
H658        H  0.78170803  0.56531029  0.28642824     0.15900
H659        H  0.86779415  0.62526221  0.23356508     0.15600
N660        N  0.83942086  0.58570011  0.19490048     0.74700
O661        O  0.78405606  0.60148974  0.33628347    -0.38700
O662        O  0.83481557  0.60158618  0.34521977    -0.38700
O663        O  0.81910700  0.59195938  0.17391719    -0.39400
O664        O  0.86765494  0.58012846  0.18672695    -0.39500
C665        C  0.84506044  0.39211174  0.25544424    -0.11700
C666        C  0.84245582  0.39344207  0.28854893     0.05300
C667        C  0.82248517  0.41625253  0.30271783    -0.07000
C668        C  0.80505350  0.43669255  0.28327589    -0.07800
C669        C  0.80760758  0.43544403  0.25010038    -0.02300
C670        C  0.82758084  0.41252614  0.23599603     0.04500
N671        N  0.82920817  0.40851001  0.20222123     0.67000
H672        H  0.85992378  0.37418714  0.24464128     0.15900
H673        H  0.79023909  0.45455219  0.29423531     0.15600
N674        N  0.82055170  0.41980796  0.33659098     0.74700
O675        O  0.85531101  0.40194840  0.18912557    -0.38700
O676        O  0.80406430  0.40664702  0.18618184    -0.38700
O677        O  0.84516659  0.41776869  0.35340861    -0.39400
O678        O  0.79494389  0.42852441  0.34939835    -0.39500
C679        C  0.68930415  0.55254237  0.12038540    -0.11700
C680        C  0.70676697  0.56439351  0.14589822     0.05300
C681        C  0.70262136  0.59593014  0.15568134    -0.07000
C682        C  0.68134244  0.61530249  0.13930506    -0.07800
C683        C  0.66369660  0.60363226  0.11363355    -0.02300
C684        C  0.66715447  0.57155288  0.10458871     0.04500
N685        N  0.64694091  0.55741083  0.08117999     0.67000
H686        H  0.69159700  0.52781018  0.11399748     0.15900
H687        H  0.67905804  0.63986738  0.14627658     0.15600
N688        N  0.72001471  0.60860526  0.18195335     0.74700
O689        O  0.65730136  0.53553272  0.06364197    -0.38700
O690        O  0.61762842  0.56329479  0.08127162    -0.38700
O691        O  0.74955375  0.60444481  0.18386014    -0.39400
O692        O  0.70628273  0.62588046  0.20213324    -0.39500
C693        C  0.66356277  0.39742818  0.14221796    -0.11700
C694        C  0.68023284  0.37953816  0.11967251     0.05300
C695        C  0.71253118  0.38620943  0.11397579    -0.07000
C696        C  0.72697003  0.41125400  0.13016955    -0.07800
C697        C  0.71023816  0.42949317  0.15249220    -0.02300
C698        C  0.67800508  0.42237960  0.15850447     0.04500
N699        N  0.65907143  0.44096469  0.17976312     0.67000
H700        H  0.63859712  0.39288936  0.14620559     0.15900
H701        H  0.75184686  0.41591464  0.12584989     0.15600
N702        N  0.73125211  0.36720765  0.09279309     0.74700
O703        O  0.65601626  0.47030307  0.17507109    -0.38700
O704        O  0.64096880  0.42739917  0.19938006    -0.38700
O705        O  0.75292260  0.37975739  0.07637734    -0.39400
O706        O  0.72872990  0.33745496  0.09318298    -0.39500
C707        C  0.67063204  0.33795970  0.96355954    -0.11700
C708        C  0.64111767  0.34039452  0.94848969     0.05300
C709        C  0.61317595  0.34157248  0.96703884    -0.07000
C710        C  0.61546902  0.33893804  0.00001666    -0.07800
C711        C  0.64492145  0.33597316  0.01508372    -0.02300
C712        C  0.67290503  0.33555682  0.99661886     0.04500
N713        N  0.70354133  0.33136463  0.01078492     0.67000
H714        H  0.69202922  0.33670951  0.94937288     0.15900
H715        H  0.59407386  0.34029836  0.01420154     0.15600
N716        N  0.58254071  0.34663664  0.95303785     0.74700
O717        O  0.70751841  0.31089826  0.03220111    -0.38700
O718        O  0.72741153  0.34534846  0.99935874    -0.38700
O719        O  0.55826567  0.33380327  0.96496126    -0.39400
O720        O  0.57909607  0.36668605  0.93112250    -0.39500
C721        C  0.12237606  0.25386113  0.56756620    -0.11700
C722        C  0.14313429  0.27105593  0.54795273     0.05300
C723        C  0.14805593  0.30357148  0.55419303    -0.07000
C724        C  0.13251938  0.31782131  0.57978592    -0.07800
C725        C  0.11186146  0.30066112  0.59947588    -0.02300
C726        C  0.10706893  0.26804876  0.59350408     0.04500
N727        N  0.08793005  0.24872845  0.61409457     0.67000
H728        H  0.11903988  0.22877559  0.56352061     0.15900
H729        H  0.13571750  0.34297985  0.58354167     0.15600
N730        N  0.16776902  0.32285045  0.53426763     0.74700
O731        O  0.07237036  0.22579243  0.60295222    -0.38700
O732        O  0.08918403  0.25231463  0.64376608    -0.38700
O733        O  0.16221048  0.32466539  0.50493877    -0.39400
O734        O  0.18748661  0.34163798  0.54653693    -0.39500
C735        C  0.10832704  0.27114812  0.36435986    -0.11700
C736        C  0.11305038  0.30384327  0.36146212     0.05300
C737        C  0.13373430  0.31944511  0.38261891    -0.07000
C738        C  0.14970116  0.30175474  0.40564714    -0.07800
C739        C  0.14473176  0.26904059  0.40892723    -0.02300
C740        C  0.12367969  0.25367184  0.38794480     0.04500
N741        N  0.11820850  0.22031226  0.38954185     0.67000
H742        H  0.09253088  0.25908367  0.34814944     0.15900
H743        H  0.16532305  0.31396096  0.42190171     0.15600
N744        N  0.13783378  0.35322675  0.38195578     0.74700
O745        O  0.09930046  0.20946376  0.41005735    -0.38700
O746        O  0.12631193  0.20305505  0.36652118    -0.38700
O747        O  0.11413480  0.37123246  0.37924150    -0.39400
O748        O  0.16455685  0.36519960  0.38795179    -0.39500
C749        C  0.54987031  0.29817315  0.80900288    -0.11700
C750        C  0.54927909  0.26522567  0.81313604     0.05300
C751        C  0.57049931  0.25110142  0.83489007    -0.07000
C752        C  0.59168760  0.27036148  0.85178171    -0.07800
C753        C  0.59232985  0.30327662  0.84731347    -0.02300
C754        C  0.57056335  0.31735063  0.82622757     0.04500
N755        N  0.56783689  0.35109700  0.82346010     0.67000
H756        H  0.53305061  0.30935957  0.79319829     0.15900
H757        H  0.60851791  0.25946143  0.86777017     0.15600
N758        N  0.57182364  0.21743216  0.83928307     0.74700
O759        O  0.56218923  0.36358590  0.79688244    -0.38700
O760        O  0.56621881  0.36791307  0.84810947    -0.38700
O761        O  0.57379872  0.19929955  0.81560512    -0.39400
O762        O  0.57572924  0.20609022  0.86667948    -0.39500
C763        C  0.40938038  0.30058721  0.79933106    -0.11700
C764        C  0.41262107  0.26847935  0.80747065     0.05300
C765        C  0.39388327  0.25615769  0.83246301    -0.07000
C766        C  0.37295474  0.27610772  0.84870098    -0.07800
C767        C  0.36996263  0.30823874  0.84078240    -0.02300
C768        C  0.38879721  0.32072854  0.81594470     0.04500
N769        N  0.38863847  0.35388728  0.80828581     0.67000
H770        H  0.42409243  0.31056738  0.78077831     0.15900
H771        H  0.35819254  0.26611399  0.86722847     0.15600
N772        N  0.39506672  0.22340854  0.84128930     0.74700
O773        O  0.38878538  0.37435743  0.83005810    -0.38700
O774        O  0.39216855  0.36277613  0.77992303    -0.38700
O775        O  0.39722600  0.21581355  0.87014355    -0.39400
O776        O  0.38884728  0.20232375  0.82106554    -0.39500
C777        C  0.25353624  0.13320078  0.58525481    -0.11700
C778        C  0.28519539  0.14249673  0.58935281     0.05300
C779        C  0.29661137  0.16940602  0.57295933    -0.07000
C780        C  0.27599780  0.18641231  0.55337648    -0.07800
C781        C  0.24446717  0.17677523  0.54870445    -0.02300
C782        C  0.23306390  0.14996936  0.56530844     0.04500
N783        N  0.20079338  0.13967314  0.56278803     0.67000
H784        H  0.24437899  0.11304128  0.59825621     0.15900
H785        H  0.28533083  0.20649865  0.54041220     0.15600
N786        N  0.32930160  0.17885495  0.57443637     0.74700
O787        O  0.19470185  0.11078301  0.55830396    -0.38700
O788        O  0.17855710  0.15830424  0.57001452    -0.38700
O789        O  0.35103344  0.15850532  0.57181652    -0.39400
O790        O  0.33652853  0.20784171  0.57440063    -0.39500
C791        C  0.39028332  0.15743892  0.65889841    -0.11700
C792        C  0.36750127  0.13859115  0.67400370     0.05300
C793        C  0.36873314  0.13443362  0.70722231    -0.07000
C794        C  0.39299323  0.14936426  0.72443030    -0.07800
C795        C  0.41575321  0.16845927  0.70930357    -0.02300
C796        C  0.41468722  0.17190529  0.67593750     0.04500
N797        N  0.43897630  0.18849384  0.65874372     0.67000
H798        H  0.38986015  0.15977080  0.63331264     0.09900
H799        H  0.39346692  0.14690718  0.74998178     0.15600
N800        N  0.34520398  0.11613469  0.72387893     0.74700
O801        O  0.46776549  0.18196365  0.66348765    -0.38700
O802        O  0.43170077  0.20567043  0.63538100    -0.38700
O803        O  0.35212320  0.10254162  0.74959753    -0.39400
O804        O  0.31675467  0.11596754  0.71471439    -0.39500
C805        C  0.29563742  0.84481898  0.56853542    -0.11700
C806        C  0.28087072  0.86777336  0.58745300     0.05300
C807        C  0.24817617  0.87382559  0.58320841    -0.07000
C808        C  0.23130815  0.85699954  0.55997717    -0.07800
C809        C  0.24606153  0.83375092  0.54126905    -0.02300
C810        C  0.27888691  0.82805915  0.54539513     0.04500
N811        N  0.29605300  0.80654411  0.52542897     0.67000
H812        H  0.32086362  0.84070133  0.57093765     0.15900
H813        H  0.20615256  0.86130982  0.55735196     0.15600
N814        N  0.23143743  0.89569877  0.60318368     0.74700
O815        O  0.29534618  0.80994862  0.49571636    -0.38700
O816        O  0.31604007  0.78785634  0.53741858    -0.38700
O817        O  0.20916051  0.91218612  0.59202155    -0.39400
O818        O  0.23600999  0.89557232  0.63272853    -0.39500
C819        C  0.35089288  0.98703716  0.62667414    -0.11700
C820        C  0.32162836  0.97140793  0.62952751     0.05300
C821        C  0.29354259  0.98952618  0.63153584    -0.07000
C822        C  0.29542986  0.02259613  0.63045913    -0.07800
C823        C  0.32470873  0.03817683  0.62824651    -0.02300
C824        C  0.35283244  0.02015444  0.62583302     0.04500
N825        N  0.38328286  0.03489283  0.62156118     0.67000
H826        H  0.37241327  0.97327448  0.62425395     0.15900
H827        H  0.27390228  0.03636463  0.63287881     0.15600
N828        N  0.26321549  0.97495172  0.63654111     0.74700
O829        O  0.40778957  0.02234695  0.63317722    -0.38700
O830        O  0.38631097  0.05852640  0.60349210    -0.38700
O831        O  0.25991036  0.95414601  0.65775769    -0.39400
O832        O  0.23891608  0.98593538  0.62306267    -0.39500
C833        C  0.54453169  0.13467772  0.70800595    -0.11700
C834        C  0.55164071  0.16541517  0.71790348     0.05300
C835        C  0.58078631  0.17916056  0.70937663    -0.07000
C836        C  0.60248956  0.16175678  0.69133260    -0.07800
C837        C  0.59523659  0.13113686  0.68036327    -0.02300
C838        C  0.56539581  0.11783968  0.68841355     0.04500
N839        N  0.55451356  0.08891667  0.67449875     0.67000
H840        H  0.52153107  0.12465019  0.71354983     0.15900
H841        H  0.62530159  0.17229778  0.68612097     0.15600
N842        N  0.58876578  0.21063385  0.71910781     0.74700
O843        O  0.54003604  0.06879054  0.69125261    -0.38700
O844        O  0.55408496  0.08620633  0.64473534    -0.38700
O845        O  0.58838327  0.21796118  0.74809245    -0.39400
O846        O  0.59790931  0.23069019  0.69889059    -0.39500
C847        C  0.62119179  0.97904554  0.63914701    -0.11700
C848        C  0.64939370  0.96363968  0.64731357     0.05300
C849        C  0.67676024  0.98165380  0.65429442    -0.07000
C850        C  0.67502249  0.01483692  0.65276739    -0.07800
C851        C  0.64665759  0.03012888  0.64472846    -0.02300
C852        C  0.61962895  0.01199424  0.63716731     0.04500
N853        N  0.59112092  0.02649745  0.62561745     0.67000
H854        H  0.60056789  0.96515438  0.63280889     0.15900
H855        H  0.69566438  0.02890687  0.65859202     0.15600
N856        N  0.70596527  0.96685356  0.66373715     0.74700
O857        O  0.59267871  0.04806055  0.60495349    -0.38700
O858        O  0.56447726  0.01460525  0.63226529    -0.38700
O859        O  0.73214662  0.98002940  0.65772369    -0.39400
O860        O  0.70568071  0.94233752  0.68083948    -0.39500
C861        C  0.83147899  0.25883404  0.39766705    -0.11700
C862        C  0.80965684  0.27370608  0.41799264     0.05300
C863        C  0.80480627  0.30670206  0.41496504    -0.07000
C864        C  0.82165504  0.32379466  0.39207149    -0.07800
C865        C  0.84292047  0.30883069  0.37135757    -0.02300
C866        C  0.84773434  0.27580067  0.37404476     0.04500
N867        N  0.86791798  0.25891815  0.35237696     0.67000
H868        H  0.83506265  0.23351224  0.39935786     0.15900
H869        H  0.81812192  0.34915168  0.39053190     0.15600
N870        N  0.78357789  0.32355903  0.43535349     0.74700
O871        O  0.88353430  0.23526707  0.36181900    -0.38700
O872        O  0.86740260  0.26521146  0.32313058    -0.38700
O873        O  0.79439406  0.34482676  0.45329764    -0.39400
O874        O  0.75421294  0.32277178  0.42985823    -0.39500
C875        C  0.82902022  0.24625884  0.57502451    -0.11700
C876        C  0.80710891  0.26356517  0.55690464     0.05300
C877        C  0.80038684  0.29513493  0.56550912    -0.07000
C878        C  0.81598324  0.30879603  0.59120270    -0.07800
C879        C  0.83818294  0.29172715  0.60910082    -0.02300
C880        C  0.84421900  0.25970826  0.60137933     0.04500
N881        N  0.86465462  0.24029632  0.62050759     0.67000
H882        H  0.83357985  0.22170508  0.56927728     0.15900
H883        H  0.81154774  0.33351301  0.59638256     0.15600
N884        N  0.77877407  0.31420004  0.54772774     0.74700
O885        O  0.86482049  0.24326231  0.65027900    -0.38700
O886        O  0.87997024  0.21782513  0.60809292    -0.38700
O887        O  0.75483021  0.32603893  0.56119307    -0.39400
O888        O  0.78588425  0.32276244  0.51995743    -0.39500
C889        C  0.72789856  0.14706049  0.56973301    -0.11700
C890        C  0.71127163  0.16518977  0.54738631     0.05300
C891        C  0.67779065  0.16618263  0.54873108    -0.07000
C892        C  0.66196118  0.15013775  0.57308765    -0.07800
C893        C  0.67857721  0.13249307  0.59574033    -0.02300
C894        C  0.71201611  0.13095696  0.59415126     0.04500
N895        N  0.73020688  0.11441974  0.61772145     0.67000
H896        H  0.75355780  0.14661379  0.56906113     0.15900
H897        H  0.63629207  0.15051625  0.57373917     0.15600
N898        N  0.65943992  0.18209871  0.52491182     0.74700
O899        O  0.75592383  0.10113491  0.61018256    -0.38700
O900        O  0.72255631  0.11597581  0.64662345    -0.38700
O901        O  0.66554345  0.17783376  0.49592010    -0.39400
O902        O  0.63441874  0.19659799  0.53254704    -0.39500
C903        C  0.68028577  0.17876692  0.40965900    -0.11700
C904        C  0.71294125  0.17286310  0.41220414     0.05300
C905        C  0.72670763  0.14907120  0.39296671    -0.07000
C906        C  0.70747702  0.13163252  0.37230441    -0.07800
C907        C  0.67485507  0.13748242  0.36996335    -0.02300
C908        C  0.66100198  0.16111708  0.38927840     0.04500
N909        N  0.62735451  0.16655117  0.38967211     0.67000
H910        H  0.66926634  0.19630833  0.42479856     0.15900
H911        H  0.71832112  0.11399781  0.35713274     0.15600
N912        N  0.76014063  0.14289362  0.39322265     0.74700
O913        O  0.60831042  0.14351310  0.38975288    -0.38700
O914        O  0.61666494  0.19415325  0.39370929    -0.38700
O915        O  0.77009408  0.11473805  0.39263746    -0.39400
O916        O  0.77952856  0.16524443  0.38892810    -0.39500
C917        C  0.58094154  0.84172528  0.29665264    -0.11700
C918        C  0.59892357  0.86463748  0.28060168     0.05300
C919        C  0.59247240  0.87072678  0.24826932    -0.07000
C920        C  0.56762887  0.85449178  0.23328218    -0.07800
C921        C  0.54964175  0.83151571  0.24937982    -0.02300
C922        C  0.55654361  0.82518088  0.28160004     0.04500
N923        N  0.53842873  0.80297758  0.29989443     0.67000
H924        H  0.58513504  0.83734732  0.32160011     0.15900
H925        H  0.56314960  0.85903375  0.20842470     0.15600
N926        N  0.61171822  0.89205018  0.22994252     0.74700
O927        O  0.55243977  0.78300255  0.31713910    -0.38700
O928        O  0.50894551  0.80681257  0.30310119    -0.38700
O929        O  0.64149267  0.89148142  0.23257346    -0.39400
O930        O  0.59942158  0.90851349  0.20824093    -0.39500
C931        C  0.64210284  0.98251071  0.34677018    -0.11700
C932        C  0.64522615  0.96784530  0.31707699     0.05300
C933        C  0.64598656  0.98668467  0.28941970    -0.07000
C934        C  0.64342358  0.01964983  0.29222658    -0.07800
C935        C  0.64034284  0.03435484  0.32194551    -0.02300
C936        C  0.63920066  0.01540668  0.34959524     0.04500
N937        N  0.63364199  0.02882094  0.38043397     0.67000
H938        H  0.64058650  0.96804898  0.36793550     0.15900
H939        H  0.64485386  0.03407078  0.27102816     0.15600
N940        N  0.65051392  0.97298125  0.25857312     0.74700
O941        O  0.61299659  0.05011006  0.38415094    -0.38700
O942        O  0.64643688  0.01671990  0.40458838    -0.38700
O943        O  0.63726295  0.98507239  0.23466556    -0.39400
O944        O  0.67053901  0.95117375  0.25455118    -0.39500
C945        C  0.41358584  0.29720694  0.15062266    -0.11700
C946        C  0.41564369  0.26456284  0.14455160     0.05300
C947        C  0.39636383  0.25127816  0.12059405    -0.07000
C948        C  0.37565001  0.27083453  0.10358393    -0.07800
C949        C  0.37327575  0.30327111  0.11018985    -0.02300
C950        C  0.39304548  0.31677671  0.13352737     0.04500
N951        N  0.39338261  0.35030749  0.13943102     0.67000
H952        H  0.42889594  0.30790896  0.16817575     0.15900
H953        H  0.36025903  0.26035588  0.08594649     0.15600
N954        N  0.39637728  0.21798183  0.11406541     0.74700
O955        O  0.39849516  0.36064274  0.16701501    -0.38700
O956        O  0.39205250  0.36966472  0.11667148    -0.38700
O957        O  0.39038495  0.19851354  0.13597758    -0.39400
O958        O  0.39706310  0.20838474  0.08574925    -0.39500
C959        C  0.58214169  0.24754814  0.14336982    -0.11700
C960        C  0.55099052  0.25903939  0.14351595     0.05300
C961        C  0.54375695  0.28799052  0.12848429    -0.07000
C962        C  0.56823971  0.30537627  0.11442578    -0.07800
C963        C  0.59947766  0.29433234  0.11502077    -0.02300
C964        C  0.60656021  0.26520448  0.12946042     0.04500
N965        N  0.63835651  0.25353421  0.13034254     0.67000
H966        H  0.58766791  0.22544980  0.15517241     0.15900
H967        H  0.56293075  0.32752047  0.10260863     0.15600
N968        N  0.51178238  0.29962627  0.12674682     0.74700
O969        O  0.65910943  0.26785729  0.14633491    -0.38700
O970        O  0.64506391  0.22742425  0.11751137    -0.38700
O971        O  0.50648412  0.32901780  0.12650287    -0.39400
O972        O  0.48918062  0.28083145  0.12144128    -0.39500
C973        C  0.57681847  0.15669617  0.23374809    -0.11700
C974        C  0.54748880  0.16503389  0.24699929     0.05300
C975        C  0.54109826  0.15826905  0.27921007    -0.07000
C976        C  0.56456083  0.14384397  0.29764363    -0.07800
C977        C  0.59385541  0.13572942  0.28440355    -0.02300
C978        C  0.60012075  0.14231631  0.25235905     0.04500
N979        N  0.63043461  0.13551174  0.23887746     0.67000
H980        H  0.58196863  0.16229913  0.20919869     0.15900
H981        H  0.55970855  0.13813336  0.32222892     0.15600
N982        N  0.51065140  0.16471814  0.29310762     0.74700
O983        O  0.63438552  0.11086555  0.22250542    -0.38700
O984        O  0.65346897  0.15387242  0.24383299    -0.38700
O985        O  0.48564643  0.15823517  0.27811698    -0.39400
O986        O  0.50860397  0.17290443  0.32180449    -0.39500
C987        C  0.25560353  0.13124178  0.37600918    -0.11700
C988        C  0.28816720  0.13779269  0.37568039     0.05300
C989        C  0.30027892  0.16158922  0.39574352    -0.07000
C990        C  0.27937597  0.17952301  0.41416713    -0.07800
C991        C  0.24669084  0.17333067  0.41438723    -0.02300
C992        C  0.23470521  0.14865968  0.39512495     0.04500
N993        N  0.20150055  0.14155048  0.39382916     0.67000
H994        H  0.24622523  0.11306228  0.36055030     0.15900
H995        H  0.28904681  0.19741942  0.42976625     0.15600
N996        N  0.33377460  0.16637148  0.39928399     0.74700
O997        O  0.18179721  0.16319820  0.38791048    -0.38700
O998        O  0.19231087  0.11312677  0.39389398    -0.38700
O999        O  0.34459187  0.19377780  0.40420010    -0.39400
O1000       O  0.35187885  0.14283766  0.40257317    -0.39500
C1001       C  0.37672581  0.12728121  0.26000577    -0.11700
C1002       C  0.37165496  0.13900988  0.29079583     0.05300
C1003       C  0.38746505  0.16699034  0.30009770    -0.07000
C1004       C  0.40736714  0.18250146  0.27862702    -0.07800
C1005       C  0.41360111  0.17000346  0.24840292    -0.02300
C1006       C  0.39802536  0.14190474  0.23917059     0.04500
N1007       N  0.40413346  0.12727273  0.20923208     0.67000
H1008       H  0.36456404  0.10612363  0.25216876     0.15900
H1009       H  0.41949170  0.20365187  0.28653584     0.15600
N1010       N  0.38576122  0.17867166  0.33190911     0.74700
O1011       O  0.42837258  0.11010341  0.20590586    -0.38700
O1012       O  0.38261649  0.12640295  0.18855231    -0.38700
O1013       O  0.39420519  0.16110415  0.35453652    -0.39400
O1014       O  0.38151345  0.20781516  0.33686791    -0.39500
C1015       C  0.24914425  0.86702837  0.36324462    -0.11700
C1016       C  0.28208144  0.86812600  0.36702554     0.05300
C1017       C  0.29662971  0.85087725  0.39172351    -0.07000
C1018       C  0.27777222  0.83199843  0.41146241    -0.07800
C1019       C  0.24480702  0.83075162  0.40771413    -0.02300
C1020       C  0.23036803  0.84825269  0.38318640     0.04500
N1021       N  0.19709777  0.84564117  0.37706483     0.67000
H1022       H  0.23817342  0.87983429  0.34390481     0.15900
H1023       H  0.28877879  0.81916383  0.43073582     0.15600
N1024       N  0.33016982  0.85299077  0.39763065     0.74700
O1025       O  0.18076546  0.87014788  0.37212372    -0.38700
O1026       O  0.18486090  0.81875043  0.37271590    -0.38700
O1027       O  0.34464390  0.87888541  0.39395425    -0.39400
O1028       O  0.34470352  0.83000162  0.40998789    -0.39500
C1029       C  0.38455501  0.84385834  0.30075570    -0.11700
C1030       C  0.36659107  0.86702828  0.28520070     0.05300
C1031       C  0.37173114  0.87254422  0.25254630    -0.07000
C1032       C  0.39506663  0.85505823  0.23653174    -0.07800
C1033       C  0.41267963  0.83137931  0.25196363    -0.02300
C1034       C  0.40704846  0.82575148  0.28456231     0.04500
N1035       N  0.42413821  0.80220406  0.30191164     0.67000
H1036       H  0.38102682  0.83967663  0.32587130     0.15900
H1037       H  0.39872328  0.85934213  0.21147394     0.15600
N1038       N  0.35273743  0.89467540  0.23502888     0.74700
O1039       O  0.44052532  0.81038743  0.32550049    -0.38700
O1040       O  0.41686029  0.77343608  0.29859778    -0.38700
O1041       O  0.36482390  0.91034494  0.21256587    -0.39400
O1042       O  0.32312948  0.89562776  0.23917072    -0.39500
C1043       C  0.32799254  0.98409186  0.35534876    -0.11700
C1044       C  0.32362456  0.97005401  0.32552563     0.05300
C1045       C  0.32222901  0.98932649  0.29821051    -0.07000
C1046       C  0.32560390  0.02212087  0.30143403    -0.07800
C1047       C  0.32972866  0.03620127  0.33126810    -0.02300
C1048       C  0.33135369  0.01691408  0.35859915     0.04500
N1049       N  0.33747348  0.02998766  0.38946730     0.67000
H1050       H  0.32986121  0.96920526  0.37618243     0.15900
H1051       H  0.32367397  0.03696409  0.28057284     0.15600
N1052       N  0.31598719  0.97626373  0.26739604     0.74700
O1053       O  0.32588544  0.01707762  0.41387293    -0.38700
O1054       O  0.35713079  0.05225047  0.39278817    -0.38700
O1055       O  0.29527716  0.95498805  0.26404873    -0.39400
O1056       O  0.32820306  0.98864460  0.24302183    -0.39500
C1057       C  0.70583602  0.86159238  0.41595625    -0.11700
C1058       C  0.72132533  0.83366840  0.40731646     0.05300
C1059       C  0.71848619  0.82188776  0.37616334    -0.07000
C1060       C  0.69999073  0.83862577  0.35424738    -0.07800
C1061       C  0.68395010  0.86645186  0.36290072    -0.02300
C1062       C  0.68645061  0.87770080  0.39445147     0.04500
N1063       N  0.66800870  0.90403065  0.40565186     0.67000
H1064       H  0.70736587  0.86986617  0.44022206     0.15900
H1065       H  0.69848275  0.83012261  0.33008359     0.15600
N1066       N  0.73442800  0.79342424  0.36631489     0.74700
O1067       O  0.63890854  0.90589722  0.39906662    -0.38700
O1068       O  0.67956601  0.92296214  0.42566023    -0.38700
O1069       O  0.72254552  0.77615613  0.34502875    -0.39400
O1070       O  0.76170911  0.78693266  0.37662366    -0.39500
C1071       C  0.82155087  0.68607638  0.57708021    -0.11700
C1072       C  0.84176270  0.70229838  0.59777345     0.05300
C1073       C  0.84696521  0.73504730  0.59351923    -0.07000
C1074       C  0.83218948  0.75055824  0.56812984    -0.07800
C1075       C  0.81205213  0.73427779  0.54725904    -0.02300
C1076       C  0.80699927  0.70147730  0.55166589     0.04500
N1077       N  0.78878938  0.68304824  0.52968462     0.67000
H1078       H  0.81830324  0.66077540  0.57980105     0.15900
H1079       H  0.83569972  0.77578633  0.56523555     0.15600
N1080       N  0.86629061  0.75297238  0.61509664     0.74700
O1081       O  0.79495113  0.68438923  0.50042558    -0.38700
O1082       O  0.77035869  0.66175107  0.53975903    -0.38700
O1083       O  0.88119161  0.77704060  0.60545577    -0.39400
O1084       O  0.86608929  0.74677832  0.64437235    -0.39500
C1085       C  0.73331818  0.85345863  0.56607756    -0.11700
C1086       C  0.71667579  0.83350761  0.54531235     0.05300
C1087       C  0.68377552  0.82891598  0.55008470    -0.07000
C1088       C  0.66878796  0.84338366  0.57589449    -0.07800
C1089       C  0.68547133  0.86298551  0.59685835    -0.02300
C1090       C  0.71825268  0.86803030  0.59193829     0.04500
N1091       N  0.73680688  0.88673322  0.61348337     0.67000
H1092       H  0.75858905  0.85673845  0.56295723     0.15900
H1093       H  0.64346101  0.84030556  0.57886260     0.15600
N1094       N  0.66487940  0.81084604  0.52837562     0.74700
O1095       O  0.73225918  0.88475015  0.64299802    -0.38700
O1096       O  0.76002085  0.90266985  0.60334778    -0.38700
O1097       O  0.64365246  0.79250496  0.53878659    -0.39400
O1098       O  0.66583779  0.81694108  0.49909187    -0.39500
C1099       C  0.83974676  0.74888016  0.39197392    -0.11700
C1100       C  0.81509394  0.73404774  0.40885382     0.05300
C1101       C  0.80696721  0.70253161  0.40101606    -0.07000
C1102       C  0.82353754  0.68677950  0.37713996    -0.07800
C1103       C  0.84747738  0.70183024  0.35960507    -0.02300
C1104       C  0.85558812  0.73344893  0.36707550     0.04500
N1105       N  0.87862513  0.75071102  0.34887483     0.67000
H1106       H  0.84593501  0.77317373  0.39728176     0.15900
H1107       H  0.81742899  0.66237520  0.37222295     0.15600
N1108       N  0.78202355  0.68589796  0.41691068     0.74700
O1109       O  0.87804490  0.74969347  0.31899218    -0.38700
O1110       O  0.89691013  0.77009557  0.36237241    -0.38700
O1111       O  0.75367469  0.69095913  0.40893221    -0.39400
O1112       O  0.78848582  0.66138009  0.43269675    -0.39500
C1113       C  0.39835807  0.70802325  0.79556964    -0.11700
C1114       C  0.40618286  0.73841200  0.80655725     0.05300
C1115       C  0.39197092  0.74938852  0.83491620    -0.07000
C1116       C  0.37070451  0.72992888  0.85139772    -0.07800
C1117       C  0.36340058  0.69934999  0.84066235    -0.02300
C1118       C  0.37792768  0.68814820  0.81254339     0.04500
N1119       N  0.37392796  0.65612413  0.80187441     0.67000
H1120       H  0.40952467  0.69879563  0.77436696     0.15900
H1121       H  0.35954220  0.73901895  0.87267193     0.15600
N1122       N  0.39882303  0.78004883  0.84754386     0.74700
O1123       O  0.37120295  0.65030858  0.77266333    -0.38700
O1124       O  0.37732918  0.63341795  0.82101591    -0.38700
O1125       O  0.40981092  0.78258137  0.87521854    -0.39400
O1126       O  0.38925238  0.80446002  0.83325232    -0.39500
C1127       C  0.55403479  0.82633893  0.68018168    -0.11700
C1128       C  0.54981783  0.83225531  0.71269717     0.05300
C1129       C  0.57097185  0.85311447  0.72815224    -0.07000
C1130       C  0.59557905  0.86725119  0.71095611    -0.07800
C1131       C  0.59923588  0.86193895  0.67835015    -0.02300
C1132       C  0.57795638  0.84139131  0.66268015     0.04500
N1133       N  0.57918962  0.83672057  0.62895184     0.67000
H1134       H  0.53773904  0.81082454  0.66789716     0.15900
H1135       H  0.61182580  0.88289696  0.72316490     0.15600
N1136       N  0.56832964  0.85996253  0.76127646     0.74700
O1137       O  0.57331703  0.80982523  0.61737340    -0.38700
O1138       O  0.58195140  0.86012810  0.61055073    -0.38700
O1139       O  0.59143234  0.85411761  0.77927846    -0.39400
O1140       O  0.54689910  0.87851348  0.77077035    -0.39500
C1141       C  0.54182825  0.70088277  0.80390543    -0.11700
C1142       C  0.54157031  0.73358628  0.80978241     0.05300
C1143       C  0.56163443  0.74591138  0.83361535    -0.07000
C1144       C  0.58164973  0.72538082  0.85042831    -0.07800
C1145       C  0.58211780  0.69277354  0.84409154    -0.02300
C1146       C  0.56118397  0.68034211  0.82121377     0.04500
N1147       N  0.55773474  0.64684900  0.81680088     0.67000
H1148       H  0.52569880  0.69090743  0.78665273     0.15900
H1149       H  0.59769147  0.73511141  0.86791040     0.15600
N1150       N  0.56290888  0.77912889  0.84034362     0.74700
O1151       O  0.55459083  0.62901474  0.84060331    -0.38700
O1152       O  0.55270186  0.63575899  0.78950128    -0.38700
O1153       O  0.56255543  0.78861680  0.86870119    -0.39400
O1154       O  0.56898823  0.79856687  0.81844250    -0.39500
C1155       C  0.40756875  0.82915451  0.67522966    -0.11700
C1156       C  0.41067774  0.83657033  0.70756910     0.05300
C1157       C  0.39158758  0.86094568  0.72046567    -0.07000
C1158       C  0.37033362  0.87721666  0.70079807    -0.07800
C1159       C  0.36721306  0.86960558  0.66857449    -0.02300
C1160       C  0.38653570  0.84556877  0.65551518     0.04500
N1161       N  0.38619107  0.83841810  0.62218531     0.67000
H1162       H  0.42249981  0.81109070  0.66479473     0.15900
H1163       H  0.35530079  0.89531889  0.71104475     0.15600
N1164       N  0.39235958  0.86870706  0.75354061     0.74700
O1165       O  0.38572157  0.86045562  0.60197985    -0.38700
O1166       O  0.39023578  0.81033725  0.61284096    -0.38700
O1167       O  0.39259164  0.89732394  0.76207508    -0.39400
O1168       O  0.38713996  0.84750443  0.77397342    -0.39500
C1169       C  0.67391871  0.56860719  0.80054476    -0.11700
C1170       C  0.70649914  0.56737777  0.80719263     0.05300
C1171       C  0.71891274  0.58742517  0.83100597    -0.07000
C1172       C  0.69846789  0.60750576  0.84780985    -0.07800
C1173       C  0.66587320  0.60837579  0.84139682    -0.02300
C1174       C  0.65343831  0.58832701  0.81769877     0.04500
N1175       N  0.61996031  0.58595279  0.81235401     0.67000
H1176       H  0.66392008  0.55282515  0.78299044     0.15900
H1177       H  0.70826947  0.62318082  0.86558152     0.15600
N1178       N  0.75216814  0.58846494  0.83790414     0.74700
O1179       O  0.60948385  0.58231462  0.78459696    -0.38700
O1180       O  0.60140352  0.58227711  0.83555816    -0.38700
O1181       O  0.77189960  0.59349559  0.81593834    -0.39400
O1182       O  0.76144498  0.58910217  0.86631624    -0.39500
C1183       C  0.82899934  0.40841651  0.73625225    -0.11700
C1184       C  0.81194113  0.42990817  0.71743720     0.05300
C1185       C  0.81030377  0.42497636  0.68444017    -0.07000
C1186       C  0.82442058  0.39827630  0.67111574    -0.07800
C1187       C  0.84102540  0.37658333  0.68988203    -0.02300
C1188       C  0.84341880  0.38158614  0.72287993     0.04500
N1189       N  0.85926082  0.35925888  0.74311521     0.67000
H1190       H  0.83004870  0.41183947  0.76166543     0.15900
H1191       H  0.82360423  0.39513013  0.64562772     0.15600
N1192       N  0.79667676  0.44814722  0.66388228     0.74700
O1193       O  0.87303918  0.36859303  0.76792791    -0.38700
O1194       O  0.85690873  0.32992311  0.73802644    -0.38700
O1195       O  0.80890141  0.47533722  0.66249642    -0.39400
O1196       O  0.77671826  0.43997732  0.64322450    -0.39500
C1197       C  0.67837427  0.43273883  0.81015547    -0.11700
C1198       C  0.71152816  0.43062458  0.80982465     0.05300
C1199       C  0.72668794  0.40641365  0.82731428    -0.07000
C1200       C  0.70817055  0.38541176  0.84530074    -0.07800
C1201       C  0.67505189  0.38774477  0.84569787    -0.02300
C1202       C  0.65997465  0.41196021  0.82832573     0.04500
N1203       N  0.62633526  0.41682322  0.83029504     0.67000
H1204       H  0.66677983  0.45170896  0.79736240     0.15900
H1205       H  0.71955461  0.36644353  0.85827776     0.15600
N1206       N  0.76043046  0.40185982  0.82591469     0.74700
O1207       O  0.61251912  0.41557495  0.85683127    -0.38700
O1208       O  0.61125858  0.42690864  0.80654517    -0.38700
O1209       O  0.77507118  0.39125768  0.84971433    -0.39400
O1210       O  0.77493322  0.40418032  0.79981494    -0.39500
C1211       C  0.83141763  0.58709543  0.72807803    -0.11700
C1212       C  0.80791774  0.56948080  0.71238025     0.05300
C1213       C  0.80046085  0.57731452  0.68063840    -0.07000
C1214       C  0.81700136  0.60150567  0.66532916    -0.07800
C1215       C  0.84060905  0.61888069  0.68087674    -0.02300
C1216       C  0.84738140  0.61212613  0.71299401     0.04500
N1217       N  0.86917928  0.63113987  0.73096492     0.67000
H1218       H  0.83664112  0.58212584  0.75270062     0.15900
H1219       H  0.81180343  0.60620575  0.64062540     0.15600
N1220       N  0.77653178  0.56084468  0.66322066     0.74700
O1221       O  0.87017870  0.66073451  0.72701342    -0.38700
O1222       O  0.88471084  0.61901718  0.75343381    -0.38700
O1223       O  0.75348245  0.57600760  0.65179125    -0.39400
O1224       O  0.78155297  0.53291740  0.65404299    -0.39500
loop_ 
_geom_bond_atom_site_label_1 
_geom_bond_atom_site_label_2 
_geom_bond_distance 
_geom_bond_site_symmetry_2 
_ccdc_geom_bond_type 
O1           Cu9   2.004       .  S
O1           C11   1.278       .  A
O2           Cu9   2.005       .  S
O2           C12   1.278       .  A
O3           Cu9   1.999       .  S
O3           C13   1.277       .  A
O4           Cu9   1.995       .  S
O4           C14   1.276       .  A
O5          Cu10   2.012       .  S
O5           C14   1.279       .  A
O6          Cu10   2.007       .  S
O6           C13   1.278       .  A
O7          Cu10   2.005       .  S
O7           C12   1.277       .  A
O8          Cu10   2.007       .  S
O8           C11   1.278       .  A
Cu9         Cu10   2.370       .  S
C11        C1170   1.485       .  S
C12        C1184   1.478       .  S
C13        C1198   1.474       .  S
C14        C1212   1.486       .  S
O15         Cu23   2.015       .  S
O15          C25   1.278       .  A
O16         Cu23   2.021       .  S
O16          C26   1.279       .  A
O17         Cu23   2.006       .  S
O17          C27   1.277       .  A
O18         Cu23   2.005       .  S
O18          C28   1.276       .  A
O19         Cu24   2.002       .  S
O19          C28   1.278       .  A
O20         Cu24   1.999       .  S
O20          C27   1.278       .  A
O21         Cu24   1.996       .  S
O21          C26   1.277       .  A
O22         Cu24   1.997       .  S
O22          C25   1.277       .  A
Cu23        Cu24   2.366       .  S
C25        C1142   1.484       .  S
C26        C1156   1.488       .  S
C27        C1114   1.487       .  S
C28        C1128   1.484       .  S
O29         Cu37   2.016       .  S
O29          C39   1.280       .  A
O30         Cu37   2.013       .  S
O30          C40   1.279       .  A
O31         Cu37   2.004       .  S
O31          C41   1.278       .  A
O32         Cu37   2.003       .  S
O32          C42   1.276       .  A
O33         Cu38   2.002       .  S
O33          C42   1.276       .  A
O34         Cu38   1.996       .  S
O34          C41   1.276       .  A
O35         Cu38   1.995       .  S
O35          C40   1.276       .  A
O36         Cu38   1.990       .  S
O36          C39   1.275       .  A
Cu37        Cu38   2.371       .  S
C39        C1100   1.486       .  S
C40        C1086   1.484       .  S
C41        C1075   1.479       .  S
C42        C1058   1.464       .  S
C43        C1030   1.482       .  S
C43          C44   1.405       .  A
C43          C48   1.401       .  A
C44          C45   1.406       .  A
C44          H49   1.084       .  S
C45        C1044   1.478       .  S
C45          C46   1.402       .  A
C46          C47   1.397       .  A
C46          H50   1.084       .  S
C47        C1016   1.470       .  S
C47          C48   1.398       .  A
C48          H51   1.084       .  S
C52         C988   1.480       .  S
C52          C53   1.404       .  A
C52          C57   1.401       .  A
C53          C54   1.405       .  A
C53          H58   1.083       .  S
C54        C1002   1.489       .  S
C54          C55   1.404       .  A
C55          C56   1.401       .  A
C55          H59   1.084       .  S
C56        C1047   1.479       .  S
C56          C57   1.402       .  A
C57          H60   1.084       .  S
O61         Cu69   1.991       .  S
O61          C71   1.277       .  A
O62         Cu69   1.997       .  S
O62          C72   1.276       .  A
O63         Cu69   1.995       .  S
O63          C73   1.276       .  A
O64         Cu69   1.986       .  S
O64          C74   1.276       .  A
O65         Cu70   2.010       .  S
O65          C74   1.278       .  A
O66         Cu70   2.004       .  S
O66          C73   1.276       .  A
O67         Cu70   2.009       .  S
O67          C72   1.277       .  A
O68         Cu70   2.012       .  S
O68          C71   1.278       .  A
Cu69        Cu70   2.374       .  S
C71         C946   1.484       .  S
C72         C974   1.466       .  S
C73         C960   1.461       .  S
C74        C1005   1.484       .  S
C75         C918   1.488       .  S
C75          C76   1.406       .  A
C75          C80   1.405       .  A
C76          C77   1.405       .  A
C76          H81   1.083       .  S
C77         C932   1.482       .  S
C77          C78   1.401       .  A
C78          C79   1.401       .  A
C78          H82   1.084       .  S
C79        C1061   1.485       .  S
C79          C80   1.403       .  A
C80          H83   1.083       .  S
C84         C977   1.467       .  S
C84          C85   1.398       .  A
C84          C89   1.397       .  A
C85          C86   1.403       .  A
C85          H90   1.084       .  S
C86         C935   1.485       .  S
C86          C87   1.407       .  A
C87          C88   1.406       .  A
C87          H91   1.083       .  S
C88         C907   1.484       .  S
C88          C89   1.403       .  A
C89          H92   1.084       .  S
O93        Cu101   2.004       .  S
O93         C103   1.277       .  A
O94        Cu101   2.006       .  S
O94         C104   1.278       .  A
O95        Cu101   2.010       .  S
O95         C105   1.278       .  A
O96        Cu101   2.016       .  S
O96         C106   1.280       .  A
O97        Cu102   1.999       .  S
O97         C106   1.275       .  A
O98        Cu102   1.996       .  S
O98         C105   1.276       .  A
O99        Cu102   2.000       .  S
O99         C104   1.277       .  A
O100       Cu102   2.004       .  S
O100        C103   1.278       .  A
Cu101      Cu102   2.368       .  S
C103        C904   1.485       .  S
C104        C876   1.483       .  S
C105        C890   1.478       .  S
C106        C862   1.486       .  S
C107       C1089   1.484       .  S
C107        C108   1.406       .  A
C107        C112   1.405       .  A
C108        C109   1.403       .  A
C108        H113   1.084       .  S
C109       C1131   1.482       .  S
C109        C110   1.400       .  A
C110        C111   1.400       .  A
C110        H114   1.084       .  S
C111        C848   1.476       .  S
C111        C112   1.402       .  A
C112        H115   1.084       .  S
C116        C837   1.494       .  S
C116        C117   1.407       .  A
C116        C121   1.407       .  A
C117        C118   1.403       .  A
C117        H122   1.083       .  S
C118        C893   1.479       .  S
C118        C119   1.400       .  A
C119        C120   1.398       .  A
C119        H123   1.084       .  S
C120        C851   1.476       .  S
C120        C121   1.404       .  A
C121        H124   1.083       .  S
C125        C806   1.488       .  S
C125        C126   1.406       .  A
C125        C130   1.405       .  A
C126        C127   1.407       .  A
C126        H131   1.083       .  S
C127        C820   1.486       .  S
C127        C128   1.404       .  A
C128        C129   1.401       .  A
C128        H132   1.084       .  S
C129       C1159   1.485       .  S
C129        C130   1.404       .  A
C130        H133   1.084       .  S
C134        C778   1.483       .  S
C134        C135   1.403       .  A
C134        C139   1.403       .  A
C135        C136   1.402       .  A
C135        H140   1.084       .  S
C136        C823   1.481       .  S
C136        C137   1.404       .  A
C137        C138   1.402       .  A
C137        H141   1.084       .  S
C138        C792   1.477       .  S
C138        C139   1.401       .  A
C139        H142   1.084       .  S
O143       Cu151   1.988       .  S
O143        C153   1.276       .  A
O144       Cu151   1.996       .  S
O144        C154   1.276       .  A
O145       Cu151   2.005       .  S
O145        C155   1.278       .  A
O146       Cu151   2.003       .  S
O146        C156   1.277       .  A
O147       Cu152   2.003       .  S
O147        C156   1.276       .  A
O148       Cu152   2.005       .  S
O148        C155   1.277       .  A
O149       Cu152   2.016       .  S
O149        C154   1.279       .  A
O150       Cu152   2.016       .  S
O150        C153   1.279       .  A
Cu151      Cu152   2.371       .  S
C153        C750   1.480       .  S
C154        C795   1.483       .  S
C155        C764   1.486       .  S
C156        C834   1.467       .  S
O157       Cu165   2.004       .  S
O157        C167   1.277       .  A
O158       Cu165   2.007       .  S
O158        C168   1.277       .  A
O159       Cu165   2.005       .  S
O159        C169   1.277       .  A
O160       Cu165   2.012       .  S
O160        C170   1.279       .  A
O161       Cu166   1.997       .  S
O161        C170   1.276       .  A
O162       Cu166   1.999       .  S
O162        C169   1.278       .  A
O163       Cu166   1.996       .  S
O163        C168   1.277       .  A
O164       Cu166   1.994       .  S
O164        C167   1.277       .  A
Cu165      Cu166   2.368       .  S
C167        C781   1.484       .  S
C168        C739   1.481       .  S
C169        C991   1.482       .  S
C170        C722   1.484       .  S
C171       C1201   1.475       .  S
C171        C172   1.399       .  A
C171        C176   1.402       .  A
C172        C173   1.403       .  A
C172        H177   1.084       .  S
C173        C708   1.480       .  S
C173        C174   1.405       .  A
C174        C175   1.401       .  A
C174        H178   1.084       .  S
C175        C753   1.482       .  S
C175        C176   1.404       .  A
C176        H179   1.084       .  S
C180        C694   1.481       .  S
C180        C181   1.406       .  A
C180        C185   1.402       .  A
C181        C182   1.404       .  A
C181        H186   1.084       .  S
C182        C711   1.480       .  S
C182        C183   1.401       .  A
C183        C184   1.397       .  A
C183        H187   1.084       .  S
C184        C963   1.466       .  S
C184        C185   1.397       .  A
C185        H188   1.084       .  S
O189       Cu197   2.005       .  S
O189        C199   1.279       .  A
O190       Cu197   2.007       .  S
O190        C200   1.278       .  A
O191       Cu197   1.996       .  S
O191        C201   1.277       .  A
O192       Cu197   1.995       .  S
O192        C202   1.275       .  A
O193       Cu198   2.008       .  S
O193        C202   1.277       .  A
O194       Cu198   2.008       .  S
O194        C201   1.278       .  A
O195       Cu198   1.993       .  S
O195        C200   1.277       .  A
O196       Cu198   2.001       .  S
O196        C199   1.276       .  A
Cu197      Cu198   2.372       .  S
C199        C652   1.484       .  S
C200        C697   1.483       .  S
C201        C669   1.478       .  S
C202        C680   1.463       .  S
C203       C1173   1.485       .  S
C203        C204   1.402       .  A
C203        C208   1.406       .  A
C204        C205   1.401       .  A
C204        H209   1.084       .  S
C205        C638   1.476       .  S
C205        C206   1.402       .  A
C206        C207   1.402       .  A
C206        H210   1.084       .  S
C207       C1145   1.485       .  S
C207        C208   1.407       .  A
C208        H211   1.084       .  S
C212        C683   1.483       .  S
C212        C213   1.404       .  A
C212        C217   1.402       .  A
C213        C214   1.402       .  A
C213        H218   1.084       .  S
C214        C641   1.478       .  S
C214        C215   1.401       .  A
C215        C216   1.404       .  A
C215        H219   1.084       .  S
C216        C627   1.483       .  S
C216        C217   1.403       .  A
C217        H220   1.084       .  S
C221        C596   1.487       .  S
C221        C222   1.404       .  A
C221        C226   1.404       .  A
C222        C223   1.404       .  A
C222        H227   1.083       .  S
C223       C1117   1.487       .  S
C223        C224   1.403       .  A
C224        C225   1.401       .  A
C224        H228   1.084       .  S
C225        C610   1.477       .  S
C225        C226   1.402       .  A
C226        H229   1.083       .  S
C230        C585   1.488       .  S
C230        C231   1.405       .  A
C230        C235   1.405       .  A
C231        C232   1.406       .  A
C231        H236   1.083       .  S
C232        C571   1.490       .  S
C232        C233   1.403       .  A
C233        C234   1.401       .  A
C233        H237   1.083       .  S
C234        C613   1.479       .  S
C234        C235   1.402       .  A
C235        H238   1.084       .  S
O239       Cu247   2.008       .  S
O239        C249   1.278       .  A
O240       Cu247   2.015       .  S
O240        C250   1.279       .  A
O241       Cu247   2.002       .  S
O241        C251   1.276       .  A
O242       Cu247   2.006       .  S
O242        C252   1.278       .  A
O243       Cu248   2.002       .  S
O243        C252   1.276       .  A
O244       Cu248   1.998       .  S
O244        C251   1.276       .  A
O245       Cu248   1.997       .  S
O245        C250   1.276       .  A
O246       Cu248   2.006       .  S
O246        C249   1.278       .  A
Cu247      Cu248   2.370       .  S
C249        C582   1.487       .  S
C250        C921   1.486       .  S
C251        C624   1.463       .  S
C252       C1033   1.486       .  S
C253        C767   1.487       .  S
C253        C254   1.404       .  A
C253        C258   1.406       .  A
C254        C255   1.401       .  A
C254        H259   1.084       .  S
C255        C554   1.481       .  S
C255        C256   1.400       .  A
C256        C257   1.403       .  A
C256        H260   1.084       .  S
C257        C540   1.486       .  S
C257        C258   1.405       .  A
C258        H261   1.083       .  S
C262        C529   1.480       .  S
C262        C263   1.401       .  A
C262        C267   1.402       .  A
C263        C264   1.403       .  A
C263        H268   1.084       .  S
C264        C949   1.480       .  S
C264        C265   1.402       .  A
C265        C266   1.403       .  A
C265        H269   1.084       .  S
C266        C557   1.482       .  S
C266        C267   1.404       .  A
C267        H270   1.084       .  S
C271       C1187   1.474       .  S
C271        C272   1.399       .  A
C271        C276   1.400       .  A
C272        C273   1.402       .  A
C272        H277   1.084       .  S
C273        C879   1.484       .  S
C273        C274   1.405       .  A
C274        C275   1.405       .  A
C274        H278   1.083       .  S
C275        C512   1.482       .  S
C275        C276   1.403       .  A
C276        H279   1.084       .  S
C280        C501   1.483       .  S
C280        C281   1.402       .  A
C280        C285   1.404       .  A
C281        C282   1.403       .  A
C281        H286   1.084       .  S
C282        C515   1.481       .  S
C282        C283   1.403       .  A
C283        C284   1.404       .  A
C283        H287   1.083       .  S
C284        C725   1.487       .  S
C284        C285   1.404       .  A
C285        H288   1.084       .  S
O289       Cu297   1.994       .  S
O289        C299   1.277       .  A
O290       Cu297   1.996       .  S
O290        C300   1.275       .  A
O291       Cu297   1.999       .  S
O291        C301   1.278       .  A
O292       Cu297   2.003       .  S
O292        C302   1.277       .  A
O293       Cu298   2.006       .  S
O293        C302   1.278       .  A
O294       Cu298   2.010       .  S
O294        C301   1.278       .  A
O295       Cu298   2.011       .  S
O295        C300   1.278       .  A
O296       Cu298   2.013       .  S
O296        C299   1.278       .  A
Cu297      Cu298   2.371       .  S
C299        C487   1.481       .  S
C300        C543   1.467       .  S
C301        C498   1.483       .  S
C302        C599   1.487       .  S
C303       C1215   1.483       .  S
C303        C304   1.402       .  A
C303        C308   1.404       .  A
C304        C305   1.400       .  A
C304        H309   1.084       .  S
C305       C1072   1.476       .  S
C305        C306   1.401       .  A
C306        C307   1.401       .  A
C306        H310   1.084       .  S
C307        C470   1.479       .  S
C307        C308   1.405       .  A
C308        H311   1.084       .  S
C312        C484   1.481       .  S
C312        C313   1.405       .  A
C312        C317   1.399       .  A
C313        C314   1.408       .  A
C313        H318   1.083       .  S
C314        C456   1.492       .  S
C314        C315   1.406       .  A
C315        C316   1.404       .  A
C315        H319   1.084       .  S
C316        C473   1.478       .  S
C316        C317   1.400       .  A
C317        H320   1.084       .  S
O321       Cu329   1.997       .  S
O321        C331   1.277       .  A
O322       Cu329   1.996       .  S
O322        C332   1.276       .  A
O323       Cu329   1.998       .  S
O323        C333   1.278       .  A
O324       Cu329   1.999       .  S
O324        C334   1.277       .  A
O325       Cu330   2.003       .  S
O325        C334   1.277       .  A
O326       Cu330   2.014       .  S
O326        C333   1.278       .  A
O327       Cu330   2.023       .  S
O327        C332   1.280       .  A
O328       Cu330   2.018       .  S
O328        C331   1.279       .  A
Cu329      Cu330   2.368       .  S
C331        C442   1.487       .  S
C332        C809   1.487       .  S
C333        C459   1.487       .  S
C334       C1019   1.473       .  S
C335        C655   1.485       .  S
C335        C336   1.402       .  A
C335        C340   1.403       .  A
C336        C337   1.404       .  A
C336        H341   1.084       .  S
C337       C1103   1.487       .  S
C337        C338   1.403       .  A
C338        C339   1.404       .  A
C338        H342   1.083       .  S
C339        C428   1.480       .  S
C339        C340   1.403       .  A
C340        H343   1.084       .  S
C344        C445   1.486       .  S
C344        C345   1.403       .  A
C344        C349   1.407       .  A
C345        C346   1.399       .  A
C345        H350   1.084       .  S
C346        C431   1.477       .  S
C346        C347   1.400       .  A
C347        C348   1.404       .  A
C347        H351   1.083       .  S
C348        C417   1.487       .  S
C348        C349   1.407       .  A
C349        H352   1.083       .  S
C353        C865   1.484       .  S
C353        C354   1.404       .  A
C353        C358   1.404       .  A
C354        C355   1.402       .  A
C354        H359   1.084       .  S
C355        C666   1.477       .  S
C355        C356   1.399       .  A
C356        C357   1.400       .  A
C356        H360   1.084       .  S
C357        C400   1.478       .  S
C357        C358   1.405       .  A
C358        H361   1.084       .  S
C362        C386   1.482       .  S
C362        C363   1.403       .  A
C362        C367   1.405       .  A
C363        C364   1.400       .  A
C363        H368   1.084       .  S
C364        C736   1.477       .  S
C364        C365   1.398       .  A
C365        C366   1.401       .  A
C365        H369   1.084       .  S
C366        C403   1.480       .  S
C366        C367   1.406       .  A
C367        H370   1.084       .  S
O371       Cu379   1.998       .  S
O371        C381   1.277       .  A
O372       Cu379   1.995       .  S
O372        C382   1.275       .  A
O373       Cu379   2.002       .  S
O373        C383   1.276       .  A
O374       Cu379   2.002       .  S
O374        C384   1.277       .  A
O375       Cu380   2.008       .  S
O375        C384   1.278       .  A
O376       Cu380   2.005       .  S
O376        C383   1.276       .  A
O377       Cu380   2.012       .  S
O377        C382   1.278       .  A
O378       Cu380   2.013       .  S
O378        C381   1.279       .  A
Cu379      Cu380   2.374       .  S
C381        C389   1.485       .  S
C382        C568   1.469       .  S
C383        C414   1.466       .  S
C384        C526   1.480       .  S
C385        C386   1.402       .  A
C385        C390   1.398       .  A
C385        H392   1.084       .  S
C386        C387   1.414       .  A
C387        C388   1.406       .  A
C387        N394   1.439       .  S
C388        C389   1.407       .  A
C388        H393   1.083       .  S
C389        C390   1.416       .  A
C390        N391   1.436       .  S
N391        O395   1.263       .  A
N391        O396   1.263       .  A
N394        O398   1.262       .  A
N394        O397   1.263       .  A
C399        C400   1.404       .  A
C399        C404   1.403       .  A
C399        H406   1.084       .  S
C400        C401   1.413       .  A
C401        C402   1.400       .  A
C401        N408   1.439       .  S
C402        C403   1.404   1_655  A
C402        H407   1.084   1_655  S
C403        C404   1.414   1_455  A
C404        N405   1.439   1_655  S
N405        O409   1.262       .  A
N405        O410   1.263   1_455  A
N408        O412   1.263       .  A
N408        O411   1.263       .  A
C413        C414   1.399       .  A
C413        C418   1.403       .  A
C413        H420   1.089       .  S
C414        C415   1.408       .  A
C415        C416   1.398       .  A
C415        N422   1.436       .  S
C416        C417   1.407       .  A
C416        H421   1.088       .  S
C417        C418   1.418       .  A
C418        N419   1.438       .  S
N419        O423   1.263       .  A
N419        O424   1.262       .  A
N422        O426   1.262       .  A
N422        O425   1.262       .  A
C427        C428   1.403       .  A
C427        C432   1.401       .  A
C427        H434   1.084       .  S
C428        C429   1.414       .  A
C429        C430   1.401       .  A
C429        N436   1.438       .  S
C430        C431   1.402   1_655  A
C430        H435   1.084   1_655  S
C431        C432   1.415   1_455  A
C432        N433   1.439   1_655  S
N433        O437   1.263       .  A
N433        O438   1.263   1_455  A
N436        O440   1.263       .  A
N436        O439   1.263       .  A
C441        C442   1.407       .  A
C441        C446   1.402       .  A
C441        H448   1.084       .  S
C442        C443   1.413       .  A
C443        C444   1.400       .  A
C443        N450   1.430       .  S
C444        C445   1.405       .  A
C444        H449   1.084       .  S
C445        C446   1.415       .  A
C446        N447   1.438       .  S
N447        O451   1.263       .  A
N447        O452   1.263       .  A
N450        O454   1.262       .  A
N450        O453   1.262       .  A
C455        C456   1.407       .  A
C455        C460   1.404       .  A
C455        H462   1.084       .  S
C456        C457   1.415       .  A
C457        C458   1.398       .  A
C457        N464   1.432       .  S
C458        C459   1.404       .  A
C458        H463   1.084       .  S
C459        C460   1.414       .  A
C460        N461   1.430       .  S
N461        O465   1.262       .  A
N461        O466   1.262       .  A
N464        O468   1.263       .  A
N464        O467   1.261       .  A
C469        C470   1.404       .  A
C469        C474   1.403       .  A
C469        H476   1.084       .  S
C470        C471   1.414       .  A
C471        C472   1.401       .  A
C471        N478   1.439       .  S
C472        C473   1.403   1_655  A
C472        H477   1.084   1_655  S
C473        C474   1.413   1_455  A
C474        N475   1.439   1_655  S
N475        O479   1.263   1_455  A
N475        O480   1.263       .  A
N478        O482   1.263       .  A
N478        O481   1.263       .  A
C483        C484   1.403       .  A
C483        C488   1.405       .  A
C483        H490   1.084       .  S
C484        C485   1.411       .  A
C485        C486   1.398       .  A
C485        N492   1.435       .  S
C486        C487   1.404       .  A
C486        H491   1.084       .  S
C487        C488   1.417       .  A
C488        N489   1.436       .  S
N489        O493   1.263       .  A
N489        O494   1.263       .  A
N492        O496   1.262       .  A
N492        O495   1.263       .  A
C497        C498   1.405       .  A
C497        C502   1.401       .  A
C497        H504   1.084       .  S
C498        C499   1.415       .  A
C499        C500   1.402       .  A
C499        N506   1.433       .  S
C500        C501   1.403       .  A
C500        H505   1.084       .  S
C501        C502   1.416       .  A
C502        N503   1.439       .  S
N503        O507   1.263       .  A
N503        O508   1.263       .  A
N506        O510   1.262       .  A
N506        O509   1.262       .  A
C511        C512   1.404       .  A
C511        C516   1.403       .  A
C511        H518   1.084       .  S
C512        C513   1.415       .  A
C513        C514   1.400       .  A
C513        N520   1.438       .  S
C514        C515   1.403   1_655  A
C514        H519   1.084   1_655  S
C515        C516   1.415   1_455  A
C516        N517   1.439   1_655  S
N517        O521   1.263   1_455  A
N517        O522   1.263       .  A
N520        O524   1.263       .  A
N520        O523   1.263       .  A
C525        C526   1.405       .  A
C525        C530   1.405       .  A
C525        H532   1.084       .  S
C526        C527   1.415       .  A
C527        C528   1.400       .  A
C527        N534   1.437       .  S
C528        C529   1.402       .  A
C528        H533   1.084       .  S
C529        C530   1.414       .  A
C530        N531   1.440       .  S
N531        O535   1.263       .  A
N531        O536   1.263       .  A
N534        O538   1.263       .  A
N534        O537   1.263       .  A
C539        C540   1.405       .  A
C539        C544   1.404       .  A
C539        H546   1.083       .  S
C540        C541   1.419       .  A
C541        C542   1.401       .  A
C541        N548   1.439       .  S
C542        C543   1.398       .  A
C542        H547   1.084       .  S
C543        C544   1.413       .  A
C544        N545   1.441       .  S
N545        O549   1.263       .  A
N545        O550   1.262       .  A
N548        O552   1.263       .  A
N548        O551   1.263       .  A
C553        C554   1.403       .  A
C553        C558   1.400       .  A
C553        H560   1.084       .  S
C554        C555   1.415       .  A
C555        C556   1.403       .  A
C555        N562   1.439       .  S
C556        C557   1.404   1_556  A
C556        H561   1.084   1_556  S
C557        C558   1.415   1_554  A
C558        N559   1.439   1_556  S
N559        O563   1.263       .  A
N559        O564   1.263   1_554  A
N562        O566   1.263       .  A
N562        O565   1.263       .  A
C567        C568   1.399       .  A
C567        C572   1.402       .  A
C567        H574   1.084       .  S
C568        C569   1.412       .  A
C569        C570   1.401       .  A
C569        N576   1.437       .  S
C570        C571   1.406       .  A
C570        H575   1.083       .  S
C571        C572   1.420       .  A
C572        N573   1.437       .  S
N573        O577   1.263       .  A
N573        O578   1.263       .  A
N576        O580   1.262       .  A
N576        O579   1.262       .  A
C581        C582   1.406       .  A
C581        C586   1.403       .  A
C581        H588   1.083       .  S
C582        C583   1.416       .  A
C583        C584   1.402       .  A
C583        N590   1.435       .  S
C584        C585   1.405       .  A
C584        H589   1.084       .  S
C585        C586   1.416       .  A
C586        N587   1.439       .  S
N587        O591   1.263       .  A
N587        O592   1.263       .  A
N590        O594   1.263       .  A
N590        O593   1.263       .  A
C595        C596   1.404       .  A
C595        C600   1.396       .  A
C595        H602   1.084       .  S
C596        C597   1.416       .  A
C597        C598   1.406       .  A
C597        N604   1.439       .  S
C598        C599   1.408       .  A
C598        H603   1.083       .  S
C599        C600   1.414       .  A
C600        N601   1.431       .  S
N601        O605   1.262       .  A
N601        O606   1.262       .  A
N604        O608   1.263       .  A
N604        O607   1.263       .  A
C609        C610   1.402       .  A
C609        C614   1.402       .  A
C609        H616   1.084       .  S
C610        C611   1.414       .  A
C611        C612   1.403       .  A
C611        N618   1.440       .  S
C612        C613   1.403   1_556  A
C612        H617   1.084   1_556  S
C613        C614   1.414   1_554  A
C614        N615   1.440   1_556  S
N615        O619   1.263       .  A
N615        O620   1.263   1_554  A
N618        O622   1.263       .  A
N618        O621   1.263       .  A
C623        C624   1.399       .  A
C623        C628   1.401       .  A
C623        H630   1.084       .  S
C624        C625   1.410       .  A
C625        C626   1.403       .  A
C625        N632   1.441       .  S
C626        C627   1.407       .  A
C626        H631   1.084       .  S
C627        C628   1.417       .  A
C628        N629   1.439       .  S
N629        O633   1.263       .  A
N629        O634   1.263       .  A
N632        O636   1.263       .  A
N632        O635   1.263       .  A
C637        C638   1.402       .  A
C637        C642   1.400       .  A
C637        H644   1.084       .  S
C638        C639   1.415       .  A
C639        C640   1.404       .  A
C639        N646   1.440       .  S
C640        C641   1.403   1_556  A
C640        H645   1.084   1_556  S
C641        C642   1.413   1_554  A
C642        N643   1.438   1_556  S
N643        O647   1.262       .  A
N643        O648   1.263   1_554  A
N646        O650   1.263       .  A
N646        O649   1.263       .  A
C651        C652   1.405       .  A
C651        C656   1.401       .  A
C651        H658   1.083       .  S
C652        C653   1.416       .  A
C653        C654   1.401       .  A
C653        N660   1.433       .  S
C654        C655   1.403       .  A
C654        H659   1.084       .  S
C655        C656   1.417       .  A
C656        N657   1.438       .  S
N657        O661   1.263       .  A
N657        O662   1.263       .  A
N660        O664   1.262       .  A
N660        O663   1.262       .  A
C665        C666   1.402       .  A
C665        C670   1.402       .  A
C665        H672   1.084       .  S
C666        C667   1.413       .  A
C667        C668   1.401       .  A
C667        N674   1.440       .  S
C668        C669   1.405       .  A
C668        H673   1.084       .  S
C669        C670   1.415       .  A
C670        N671   1.437       .  S
N671        O675   1.263       .  A
N671        O676   1.263       .  A
N674        O678   1.263       .  A
N674        O677   1.263       .  A
C679        C680   1.399       .  A
C679        C684   1.403       .  A
C679        H686   1.084       .  S
C680        C681   1.407       .  A
C681        C682   1.399       .  A
C681        N688   1.435       .  S
C682        C683   1.406       .  A
C682        H687   1.084       .  S
C683        C684   1.417       .  A
C684        N685   1.437       .  S
N685        O689   1.263       .  A
N685        O690   1.262       .  A
N688        O692   1.262       .  A
N688        O691   1.262       .  A
C693        C694   1.404       .  A
C693        C698   1.400       .  A
C693        H700   1.084       .  S
C694        C695   1.412       .  A
C695        C696   1.401       .  A
C695        N702   1.438       .  S
C696        C697   1.407       .  A
C696        H701   1.083       .  S
C697        C698   1.416       .  A
C698        N699   1.435       .  S
N699        O703   1.263       .  A
N699        O704   1.263       .  A
N702        O706   1.262       .  A
N702        O705   1.263       .  A
C707        C708   1.404       .  A
C707        C712   1.402       .  A
C707        H714   1.084       .  S
C708        C709   1.415       .  A
C709        C710   1.400   1_556  A
C709        N716   1.439       .  S
C710        C711   1.403       .  A
C710        H715   1.084       .  S
C711        C712   1.414   1_554  A
C712        N713   1.437   1_556  S
N713        O717   1.262       .  A
N713        O718   1.263   1_554  A
N716        O720   1.263       .  A
N716        O719   1.263       .  A
C721        C722   1.406       .  A
C721        C726   1.405       .  A
C721        H728   1.083       .  S
C722        C723   1.415       .  A
C723        C724   1.399       .  A
C723        N730   1.435       .  S
C724        C725   1.404       .  A
C724        H729   1.084       .  S
C725        C726   1.416       .  A
C726        N727   1.439       .  S
N727        O731   1.263       .  A
N727        O732   1.263       .  A
N730        O734   1.263       .  A
N730        O733   1.263       .  A
C735        C736   1.402       .  A
C735        C740   1.400       .  A
C735        H742   1.084       .  S
C736        C737   1.414       .  A
C737        C738   1.400       .  A
C737        N744   1.439       .  S
C738        C739   1.405       .  A
C738        H743   1.084       .  S
C739        C740   1.414       .  A
C740        N741   1.430       .  S
N741        O745   1.262       .  A
N741        O746   1.262       .  A
N744        O748   1.263       .  A
N744        O747   1.263       .  A
C749        C750   1.404       .  A
C749        C754   1.397       .  A
C749        H756   1.084       .  S
C750        C751   1.416       .  A
C751        C752   1.405       .  A
C751        N758   1.436       .  S
C752        C753   1.404       .  A
C752        H757   1.084       .  S
C753        C754   1.412       .  A
C754        N755   1.436       .  S
N755        O759   1.263       .  A
N755        O760   1.262       .  A
N758        O762   1.262       .  A
N758        O761   1.262       .  A
C763        C764   1.407       .  A
C763        C768   1.404       .  A
C763        H770   1.083       .  S
C764        C765   1.416       .  A
C765        C766   1.400       .  A
C765        N772   1.434       .  S
C766        C767   1.404       .  A
C766        H771   1.084       .  S
C767        C768   1.416       .  A
C768        N769   1.438       .  S
N769        O773   1.263       .  A
N769        O774   1.263       .  A
N772        O776   1.262       .  A
N772        O775   1.263       .  A
C777        C778   1.404       .  A
C777        C782   1.400       .  A
C777        H784   1.084       .  S
C778        C779   1.415       .  A
C779        C780   1.400       .  A
C779        N786   1.438       .  S
C780        C781   1.406       .  A
C780        H785   1.083       .  S
C781        C782   1.416       .  A
C782        N783   1.434       .  S
N783        O787   1.263       .  A
N783        O788   1.262       .  A
N786        O790   1.263       .  A
N786        O789   1.263       .  A
C791        C792   1.401       .  A
C791        C796   1.399       .  A
C791        H798   1.084       .  S
C792        C793   1.414       .  A
C793        C794   1.407       .  A
C793        N800   1.440       .  S
C794        C795   1.406       .  A
C794        H799   1.083       .  S
C795        C796   1.416       .  A
C796        N797   1.437       .  S
N797        O801   1.263       .  A
N797        O802   1.263       .  A
N800        O804   1.263       .  A
N800        O803   1.263       .  A
C805        C806   1.402       .  A
C805        C810   1.400       .  A
C805        H812   1.084       .  S
C806        C807   1.416       .  A
C807        C808   1.407       .  A
C807        N814   1.436       .  S
C808        C809   1.406       .  A
C808        H813   1.083       .  S
C809        C810   1.418       .  A
C810        N811   1.436       .  S
N811        O815   1.262       .  A
N811        O816   1.263       .  A
N814        O818   1.262       .  A
N814        O817   1.263       .  A
C819        C820   1.406       .  A
C819        C824   1.403   1_565  A
C819        H826   1.084       .  S
C820        C821   1.414       .  A
C821        C822   1.401   1_565  A
C821        N828   1.436       .  S
C822        C823   1.403       .  A
C822        H827   1.084       .  S
C823        C824   1.414       .  A
C824        N825   1.439       .  S
N825        O829   1.263       .  A
N825        O830   1.263       .  A
N828        O832   1.263       .  A
N828        O831   1.262       .  A
C833        C834   1.398       .  A
C833        C838   1.401       .  A
C833        H840   1.084       .  S
C834        C835   1.406       .  A
C835        C836   1.399       .  A
C835        N842   1.433       .  S
C836        C837   1.409       .  A
C836        H841   1.083       .  S
C837        C838   1.420       .  A
C838        N839   1.433       .  S
N839        O843   1.263       .  A
N839        O844   1.261       .  A
N842        O846   1.262       .  A
N842        O845   1.262       .  A
C847        C848   1.401       .  A
C847        C852   1.397   1_565  A
C847        H854   1.084       .  S
C848        C849   1.415       .  A
C849        C850   1.406   1_565  A
C849        N856   1.440       .  S
C850        C851   1.403       .  A
C850        H855   1.084       .  S
C851        C852   1.412       .  A
C852        N853   1.437       .  S
N853        O857   1.263       .  A
N853        O858   1.263       .  A
N856        O860   1.263       .  A
N856        O859   1.263       .  A
C861        C862   1.406       .  A
C861        C866   1.405       .  A
C861        H868   1.083       .  S
C862        C863   1.416       .  A
C863        C864   1.399       .  A
C863        N870   1.431       .  S
C864        C865   1.403       .  A
C864        H869   1.084       .  S
C865        C866   1.416       .  A
C866        N867   1.438       .  S
N867        O871   1.263       .  A
N867        O872   1.263       .  A
N870        O874   1.262       .  A
N870        O873   1.262       .  A
C875        C876   1.407       .  A
C875        C880   1.406       .  A
C875        H882   1.083       .  S
C876        C877   1.412       .  A
C877        C878   1.395       .  A
C877        N884   1.431       .  S
C878        C879   1.404       .  A
C878        H883   1.084       .  S
C879        C880   1.416       .  A
C880        N881   1.440       .  S
N881        O885   1.263       .  A
N881        O886   1.263       .  A
N884        O888   1.262       .  A
N884        O887   1.262       .  A
C889        C890   1.404       .  A
C889        C894   1.404       .  A
C889        H896   1.084       .  S
C890        C891   1.415       .  A
C891        C892   1.399       .  A
C891        N898   1.438       .  S
C892        C893   1.402       .  A
C892        H897   1.084       .  S
C893        C894   1.415       .  A
C894        N895   1.439       .  S
N895        O899   1.263       .  A
N895        O900   1.263       .  A
N898        O902   1.263       .  A
N898        O901   1.263       .  A
C903        C904   1.405       .  A
C903        C908   1.401       .  A
C903        H910   1.083       .  S
C904        C905   1.417       .  A
C905        C906   1.402       .  A
C905        N912   1.435       .  S
C906        C907   1.403       .  A
C906        H911   1.084       .  S
C907        C908   1.416       .  A
C908        N909   1.439       .  S
N909        O913   1.263       .  A
N909        O914   1.263       .  A
N912        O916   1.263       .  A
N912        O915   1.263       .  A
C917        C918   1.403       .  A
C917        C922   1.399       .  A
C917        H924   1.084       .  S
C918        C919   1.415       .  A
C919        C920   1.405       .  A
C919        N926   1.437       .  S
C920        C921   1.406       .  A
C920        H925   1.083       .  S
C921        C922   1.417       .  A
C922        N923   1.434       .  S
N923        O927   1.263       .  A
N923        O928   1.262       .  A
N926        O930   1.263       .  A
N926        O929   1.262       .  A
C931        C932   1.404       .  A
C931        C936   1.401   1_565  A
C931        H938   1.084       .  S
C932        C933   1.413       .  A
C933        C934   1.403   1_565  A
C933        N940   1.438       .  S
C934        C935   1.406       .  A
C934        H939   1.084       .  S
C935        C936   1.416       .  A
C936        N937   1.439       .  S
N937        O941   1.263       .  A
N937        O942   1.263       .  A
N940        O944   1.262       .  A
N940        O943   1.263       .  A
C945        C946   1.406       .  A
C945        C950   1.400       .  A
C945        H952   1.083       .  S
C946        C947   1.416       .  A
C947        C948   1.402       .  A
C947        N954   1.434       .  S
C948        C949   1.403       .  A
C948        H953   1.084       .  S
C949        C950   1.413       .  A
C950        N951   1.439       .  S
N951        O955   1.263       .  A
N951        O956   1.263       .  A
N954        O958   1.262       .  A
N954        O957   1.263       .  A
C959        C960   1.402       .  A
C959        C964   1.400       .  A
C959        H966   1.084       .  S
C960        C961   1.412       .  A
C961        C962   1.399       .  A
C961        N968   1.439       .  S
C962        C963   1.399       .  A
C962        H967   1.084       .  S
C963        C964   1.406       .  A
C964        N965   1.431       .  S
N965        O969   1.262       .  A
N965        O970   1.262       .  A
N968        O972   1.262       .  A
N968        O971   1.263       .  A
C973        C974   1.403       .  A
C973        C978   1.399       .  A
C973        H980   1.084       .  S
C974        C975   1.414       .  A
C975        C976   1.401       .  A
C975        N982   1.438       .  S
C976        C977   1.399       .  A
C976        H981   1.084       .  S
C977        C978   1.405       .  A
C978        N979   1.429       .  S
N979        O983   1.261       .  A
N979        O984   1.262       .  A
N982        O986   1.262       .  A
N982        O985   1.262       .  A
C987        C988   1.402       .  A
C987        C992   1.403       .  A
C987        H994   1.084       .  S
C988        C989   1.412       .  A
C989        C990   1.398       .  A
C989        N996   1.437       .  S
C990        C991   1.404       .  A
C990        H995   1.084       .  S
C991        C992   1.417       .  A
C992        N993   1.435       .  S
N993        O997   1.262       .  A
N993        O998   1.263       .  A
N996       O1000   1.263       .  A
N996        O999   1.263       .  A
C1001      C1002   1.407       .  A
C1001      C1006   1.400       .  A
C1001      H1008   1.083       .  S
C1002      C1003   1.414       .  A
C1003      C1004   1.397       .  A
C1003      N1010   1.432       .  S
C1004      C1005   1.405       .  A
C1004      H1009   1.083       .  S
C1005      C1006   1.413       .  A
C1006      N1007   1.430       .  S
N1007      O1011   1.262       .  A
N1007      O1012   1.262       .  A
N1010      O1014   1.263       .  A
N1010      O1013   1.261       .  A
C1015      C1016   1.401       .  A
C1015      C1020   1.401       .  A
C1015      H1022   1.084       .  S
C1016      C1017   1.413       .  A
C1017      C1018   1.400       .  A
C1017      N1024   1.441       .  S
C1018      C1019   1.402       .  A
C1018      H1023   1.083       .  S
C1019      C1020   1.412       .  A
C1020      N1021   1.433       .  S
N1021      O1025   1.262       .  A
N1021      O1026   1.262       .  A
N1024      O1028   1.263       .  A
N1024      O1027   1.263       .  A
C1029      C1030   1.403       .  A
C1029      C1034   1.397       .  A
C1029      H1036   1.084       .  S
C1030      C1031   1.414       .  A
C1031      C1032   1.404       .  A
C1031      N1038   1.438       .  S
C1032      C1033   1.407       .  A
C1032      H1037   1.083       .  S
C1033      C1034   1.415       .  A
C1034      N1035   1.432       .  S
N1035      O1039   1.262       .  A
N1035      O1040   1.262       .  A
N1038      O1042   1.262       .  A
N1038      O1041   1.263       .  A
C1043      C1044   1.404       .  A
C1043      C1048   1.402   1_565  A
C1043      H1050   1.084       .  S
C1044      C1045   1.412       .  A
C1045      C1046   1.400   1_565  A
C1045      N1052   1.438       .  S
C1046      C1047   1.404       .  A
C1046      H1051   1.084       .  S
C1047      C1048   1.414       .  A
C1048      N1049   1.439       .  S
N1049      O1053   1.263       .  A
N1049      O1054   1.263       .  A
N1052      O1056   1.263       .  A
N1052      O1055   1.262       .  A
C1057      C1058   1.398       .  A
C1057      C1062   1.400       .  A
C1057      H1064   1.084       .  S
C1058      C1059   1.412       .  A
C1059      C1060   1.403       .  A
C1059      N1066   1.440       .  S
C1060      C1061   1.406       .  A
C1060      H1065   1.083       .  S
C1061      C1062   1.418       .  A
C1062      N1063   1.438       .  S
N1063      O1067   1.263       .  A
N1063      O1068   1.263       .  A
N1066      O1070   1.262       .  A
N1066      O1069   1.263       .  A
C1071      C1072   1.402       .  A
C1071      C1076   1.398       .  A
C1071      H1078   1.084       .  S
C1072      C1073   1.413       .  A
C1073      C1074   1.403       .  A
C1073      N1080   1.440       .  S
C1074      C1075   1.406       .  A
C1074      H1079   1.083       .  S
C1075      C1076   1.415       .  A
C1076      N1077   1.436       .  S
N1077      O1081   1.262       .  A
N1077      O1082   1.263       .  A
N1080      O1084   1.263       .  A
N1080      O1083   1.263       .  A
C1085      C1086   1.406       .  A
C1085      C1090   1.405       .  A
C1085      H1092   1.083       .  S
C1086      C1087   1.416       .  A
C1087      C1088   1.399       .  A
C1087      N1094   1.436       .  S
C1088      C1089   1.403       .  A
C1088      H1093   1.084       .  S
C1089      C1090   1.415       .  A
C1090      N1091   1.439       .  S
N1091      O1095   1.262       .  A
N1091      O1096   1.263       .  A
N1094      O1098   1.263       .  A
N1094      O1097   1.263       .  A
C1099      C1100   1.407       .  A
C1099      C1104   1.405       .  A
C1099      H1106   1.083       .  S
C1100      C1101   1.415       .  A
C1101      C1102   1.395       .  A
C1101      N1108   1.431       .  S
C1102      C1103   1.403       .  A
C1102      H1107   1.084       .  S
C1103      C1104   1.416       .  A
C1104      N1105   1.436       .  S
N1105      O1109   1.262       .  A
N1105      O1110   1.263       .  A
N1108      O1112   1.262       .  A
N1108      O1111   1.262       .  A
C1113      C1114   1.406       .  A
C1113      C1118   1.399       .  A
C1113      H1120   1.083       .  S
C1114      C1115   1.416       .  A
C1115      C1116   1.401       .  A
C1115      N1122   1.431       .  S
C1116      C1117   1.405       .  A
C1116      H1121   1.084       .  S
C1117      C1118   1.416       .  A
C1118      N1119   1.437       .  S
N1119      O1123   1.263       .  A
N1119      O1124   1.263       .  A
N1122      O1126   1.262       .  A
N1122      O1125   1.262       .  A
C1127      C1128   1.406       .  A
C1127      C1132   1.402       .  A
C1127      H1134   1.084       .  S
C1128      C1129   1.416       .  A
C1129      C1130   1.399       .  A
C1129      N1136   1.432       .  S
C1130      C1131   1.402       .  A
C1130      H1135   1.084       .  S
C1131      C1132   1.415       .  A
C1132      N1133   1.438       .  S
N1133      O1137   1.263       .  A
N1133      O1138   1.263       .  A
N1136      O1140   1.262       .  A
N1136      O1139   1.262       .  A
C1141      C1142   1.405       .  A
C1141      C1146   1.399       .  A
C1141      H1148   1.084       .  S
C1142      C1143   1.416       .  A
C1143      C1144   1.405       .  A
C1143      N1150   1.434       .  S
C1144      C1145   1.404       .  A
C1144      H1149   1.084       .  S
C1145      C1146   1.412       .  A
C1146      N1147   1.436       .  S
N1147      O1151   1.262       .  A
N1147      O1152   1.263       .  A
N1150      O1154   1.262       .  A
N1150      O1153   1.262       .  A
C1155      C1156   1.407       .  A
C1155      C1160   1.402       .  A
C1155      H1162   1.083       .  S
C1156      C1157   1.417       .  A
C1157      C1158   1.404       .  A
C1157      N1164   1.434       .  S
C1158      C1159   1.404       .  A
C1158      H1163   1.084       .  S
C1159      C1160   1.414       .  A
C1160      N1161   1.439       .  S
N1161      O1165   1.263       .  A
N1161      O1166   1.263       .  A
N1164      O1168   1.262       .  A
N1164      O1167   1.263       .  A
C1169      C1170   1.405       .  A
C1169      C1174   1.402       .  A
C1169      H1176   1.084       .  S
C1170      C1171   1.416       .  A
C1171      C1172   1.402       .  A
C1171      N1178   1.435       .  S
C1172      C1173   1.404       .  A
C1172      H1177   1.084       .  S
C1173      C1174   1.413       .  A
C1174      N1175   1.435       .  S
N1175      O1179   1.263       .  A
N1175      O1180   1.262       .  A
N1178      O1182   1.263       .  A
N1178      O1181   1.263       .  A
C1183      C1184   1.406       .  A
C1183      C1188   1.405       .  A
C1183      H1190   1.083       .  S
C1184      C1185   1.410       .  A
C1185      C1186   1.395       .  A
C1185      N1192   1.430       .  S
C1186      C1187   1.401       .  A
C1186      H1191   1.085       .  S
C1187      C1188   1.412       .  A
C1188      N1189   1.439       .  S
N1189      O1193   1.262       .  A
N1189      O1194   1.263       .  A
N1192      O1196   1.262       .  A
N1192      O1195   1.261       .  A
C1197      C1198   1.403       .  A
C1197      C1202   1.399       .  A
C1197      H1204   1.084       .  S
C1198      C1199   1.415       .  A
C1199      C1200   1.404       .  A
C1199      N1206   1.439       .  S
C1200      C1201   1.402       .  A
C1200      H1205   1.084       .  S
C1201      C1202   1.411       .  A
C1202      N1203   1.437       .  S
N1203      O1207   1.262       .  A
N1203      O1208   1.263       .  A
N1206      O1210   1.263       .  A
N1206      O1209   1.263       .  A
C1211      C1212   1.407       .  A
C1211      C1216   1.406       .  A
C1211      H1218   1.083       .  S
C1212      C1213   1.416       .  A
C1213      C1214   1.395       .  A
C1213      N1220   1.432       .  S
C1214      C1215   1.402       .  A
C1214      H1219   1.084       .  S
C1215      C1216   1.415       .  A
C1216      N1217   1.439       .  S
N1217      O1221   1.263       .  A
N1217      O1222   1.263       .  A
N1220      O1224   1.261       .  A
N1220      O1223   1.262       .  A
