geometry optimzed in LAMMPS
_audit_creation_date              2020-12-01 
_audit_creation_method            'lammps2cif' 
_symmetry_space_group_name_H-M    'P1' 
_symmetry_Int_Tables_number       1 
_symmetry_cell_setting            triclinic 
loop_ 
_symmetry_equiv_pos_as_xyz 
  x,y,z 
_cell_length_a                    48.90469118 
_cell_length_b                    48.338933791237345 
_cell_length_c                    52.94624469542147 
_cell_angle_alpha                 90.16246355153929 
_cell_angle_beta                  89.83230524916121 
_cell_angle_gamma                 89.95976075968248 
loop_ 
_atom_site_label 
_atom_site_type_symbol 
_atom_site_fract_x 
_atom_site_fract_y 
_atom_site_fract_z 
_atom_site_charge 
O1          O  0.46010252  0.43092198  0.28284176    -0.57500
C2          C  0.43374962  0.35040460  0.26350564     0.75100
O3          O  0.49162414  0.34984924  0.31446009    -0.58700
C4          C  0.47125697  0.44230288  0.30187186     0.75100
C5          C  0.41503563  0.37889460  0.34355282     0.77500
Cd6        Cd  0.45580202  0.38447255  0.30345453     1.37500
O7          O  0.42666760  0.37565517  0.26516255    -0.57500
O8          O  0.40907204  0.38410855  0.32086175    -0.56300
C9          C  0.01125501  0.35997127  0.30307859     0.77400
O10         O  0.44039816  0.37625087  0.34806861    -0.58700
O11         O  0.45081068  0.34196439  0.27959134    -0.57100
O12         O  0.47316991  0.42748059  0.32146588    -0.57100
O13         O  0.50342310  0.38286106  0.28951747    -0.56300
O14         O  0.03447329  0.06031842  0.28289185    -0.57500
C15         C  0.06742085  0.14041380  0.26482401     0.75100
O16         O  0.00262649  0.13908793  0.31501440    -0.58700
C17         C  0.02516767  0.04898287  0.30277322     0.75100
C18         C  0.08507568  0.10982485  0.34149033     0.77500
Cd19       Cd  0.04162595  0.10675637  0.30305456     1.37500
O20         O  0.07279280  0.11469423  0.26567818    -0.57500
O21         O  0.08926087  0.10429553  0.31845084    -0.56300
C22         C  0.48280433  0.13219983  0.30026706     0.77400
O23         O  0.06024788  0.11465173  0.34739554    -0.58700
O24         O  0.05005642  0.14935608  0.28059084    -0.57100
O25         O  0.02507127  0.06388223  0.32247694    -0.57100
O26         O  0.99597944  0.11077423  0.28419235    -0.56300
O27         O  0.22365985  0.06251792  0.47709765    -0.57500
C28         C  0.19437703  0.14259527  0.49337994     0.75100
O29         O  0.25460316  0.14124276  0.44433070    -0.58700
C30         C  0.23468820  0.05037664  0.45831039     0.75100
C31         C  0.17403127  0.10705444  0.41578752     0.77500
Cd32       Cd  0.21709716  0.10714112  0.45461026     1.37500
O33         O  0.19178446  0.11651335  0.49509609    -0.57500
O34         O  0.17068445  0.09755954  0.43783267    -0.56300
C35         C  0.27203769  0.12944175  0.45846525     0.77400
O36         O  0.19791750  0.11606538  0.41093940    -0.58700
O37         O  0.20708898  0.15146278  0.47426743    -0.57100
O38         O  0.23579109  0.06404873  0.43792082    -0.57100
O39         O  0.26466839  0.10681727  0.46816130    -0.56300
O40         O  0.28500114  0.42464582  0.48593740    -0.57500
C41         C  0.31624360  0.34352769  0.50402184     0.75100
O42         O  0.25482173  0.34794477  0.45015368    -0.58700
C43         C  0.27872764  0.43654091  0.46537955     0.75100
C44         C  0.33358203  0.37393982  0.42440216     0.77500
Cd45       Cd  0.29299719  0.37842156  0.46499358     1.37500
O46         O  0.32441234  0.36829679  0.50148069    -0.57500
O47         O  0.33909577  0.38341017  0.44610179    -0.56300
C48         C  0.23753637  0.35721356  0.46605712     0.77400
O49         O  0.30910585  0.36585303  0.42123234    -0.58700
O50         O  0.29718109  0.33602626  0.48951168    -0.57100
O51         O  0.28107249  0.42201612  0.44559148    -0.57100
O52         O  0.24548690  0.37694002  0.47995407    -0.56300
O53         O  0.10846994  0.49230902  0.72927267    -0.57500
C54         C  0.11127988  0.40797097  0.66686202     0.75100
O55         O  0.15116375  0.44073847  0.73005816    -0.58700
C56         C  0.12877684  0.50159316  0.71716746     0.75100
C57         C  0.05123703  0.46412425  0.71229914     0.77500
Cd58       Cd  0.10758575  0.44703478  0.70901215     1.37500
O59         O  0.11756550  0.43325302  0.66377184    -0.57500
O60         O  0.06609675  0.46799512  0.69299284    -0.56300
C61         C  0.14405587  0.42228061  0.74557201     0.77400
O62         O  0.06190154  0.44996233  0.72992974    -0.58700
O63         O  0.10307136  0.40142417  0.68872043    -0.57100
O64         O  0.13804977  0.48663667  0.69925177    -0.57100
O65         O  0.11902810  0.41517815  0.74515971    -0.56300
O66         O  0.35451160  0.48888464  0.69804572    -0.57500
C67         C  0.38517666  0.06748288  0.67456735     0.75100
O68         O  0.37822367  0.05621747  0.75378871    -0.58700
C69         C  0.36603619  0.47084221  0.71187648     0.75100
C70         C  0.44417380  0.00937840  0.71582630     0.77500
Cd71       Cd  0.38751844  0.02599285  0.71505763     1.37500
O72         O  0.37821205  0.04256648  0.67037993    -0.57500
O73         O  0.42992840  0.00997979  0.69594650    -0.56300
C74         C  0.35331954  0.04889911  0.75541899     0.77400
O75         O  0.43273405  0.01815910  0.73589460    -0.58700
O76         O  0.39255856  0.07264814  0.69696874    -0.57100
O77         O  0.38644973  0.97783753  0.72903005    -0.57100
O78         O  0.34533405  0.03159712  0.73912812    -0.56300
O79         O  0.35544996  0.23333378  0.56878498    -0.57500
C80         C  0.38548481  0.15343132  0.59676690     0.75100
O81         O  0.38335174  0.16697057  0.51989270    -0.58700
C82         C  0.36588513  0.25103758  0.55385409     0.75100
C83         C  0.44692715  0.21214256  0.55578151     0.77500
Cd84       Cd  0.38994951  0.19645488  0.55808612     1.37500
O85         O  0.38509433  0.17899314  0.60248507    -0.57500
O86         O  0.43300961  0.21319214  0.57596027    -0.56300
C87         C  0.35846580  0.17390690  0.51719689     0.77400
O88         O  0.43492410  0.20197160  0.53664662    -0.58700
O89         O  0.38741688  0.14803530  0.57346175    -0.57100
O90         O  0.38814393  0.24425199  0.54337697    -0.57100
O91         O  0.34885363  0.19087713  0.53313097    -0.56300
O92         O  0.14633987  0.24751187  0.56030079    -0.57500
C93         C  0.11255689  0.32407805  0.58736695     0.75100
O94         O  0.11801449  0.30906233  0.50769361    -0.58700
C95         C  0.13837372  0.22983972  0.54411180     0.75100
C96         C  0.05456272  0.26044168  0.54982717     0.77500
Cd97       Cd  0.11044974  0.28177832  0.54819835     1.37500
O98         O  0.12068033  0.29952553  0.59150384    -0.57500
O99         O  0.06949974  0.26211188  0.56928975    -0.56300
C100        C  0.14384101  0.30589073  0.50870789     0.77400
O101        O  0.06485952  0.27022173  0.52966486    -0.58700
O102        O  0.10347573  0.32864243  0.56538369    -0.57100
O103        O  0.11694872  0.23563782  0.53193411    -0.57100
O104        O  0.15291235  0.29228845  0.52716872    -0.56300
O105        O  0.46671059  0.31301726  0.98161732    -0.57500
C106        C  0.43395964  0.38853374  0.00027446     0.75100
O107        O  0.48975331  0.39640496  0.95387951    -0.58700
C108        C  0.47630573  0.30058891  0.96234404     0.75100
C109        C  0.41676364  0.35958232  0.91891820     0.77500
Cd110      Cd  0.45753830  0.35716178  0.95929373     1.37500
O111        O  0.42958362  0.36264136  0.99903506    -0.57500
O112        O  0.41099849  0.35229576  0.94123275    -0.56300
C113        C  0.01313035  0.38369653  0.96234815     0.77400
O114        O  0.44156654  0.36611220  0.91502644    -0.58700
O115        O  0.44920058  0.39871928  0.98344400    -0.57100
O116        O  0.47538510  0.31386383  0.94175021    -0.57100
O117        O  0.50723701  0.35823230  0.96687856    -0.56300
O118        O  0.03505278  0.17873865  0.98341625    -0.57500
C119        C  0.06130330  0.10081738  0.00604831     0.75100
O120        O  0.00267961  0.09720159  0.95288332    -0.58700
C121        C  0.02438555  0.18961031  0.96399112     0.75100
C122        C  0.08270439  0.12392242  0.92661029     0.77500
Cd123      Cd  0.03932010  0.13152264  0.96455173     1.37500
O124        O  0.06796809  0.12599201  0.00312785    -0.57500
O125        O  0.08738266  0.13137658  0.94908240    -0.56300
C126        C  0.48641755  0.10613306  0.96319019     0.77400
O127        O  0.05771441  0.11954971  0.92138610    -0.58700
O128        O  0.04391736  0.09109886  0.99085278    -0.57100
O129        O  0.02201657  0.17394578  0.94491408    -0.57100
O130        O  0.99243558  0.12850820  0.98029946    -0.56300
O131        O  0.28495034  0.30222685  0.78218383    -0.57500
C132        C  0.31579603  0.38010456  0.75992389     0.75100
O133        O  0.25397511  0.38351730  0.80898578    -0.58700
C134        C  0.27425530  0.29206659  0.80199243     0.75100
C135        C  0.33150391  0.35618905  0.84157019     0.77500
Cd136      Cd  0.29138445  0.34948922  0.80071371     1.37500
O137        O  0.32328304  0.35536874  0.76407945    -0.57500
O138        O  0.33725650  0.34647368  0.81997479    -0.56300
C139        C  0.23796442  0.37295118  0.79268625     0.77400
O140        O  0.30673675  0.36355615  0.84464445    -0.58700
O141        O  0.29736712  0.38980064  0.77415362    -0.57100
O142        O  0.27310927  0.30800609  0.82098704    -0.57100
O143        O  0.24593440  0.35084752  0.78217484    -0.56300
O144        O  0.21295116  0.17030876  0.78723280    -0.57500
C145        C  0.18578636  0.08871527  0.77000249     0.75100
O146        O  0.24467013  0.08977309  0.81931829    -0.58700
C147        C  0.22599110  0.18181429  0.80514130     0.75100
C148        C  0.16825375  0.12251333  0.84914423     0.77500
Cd149      Cd  0.20893157  0.12443807  0.80858915     1.37500
O150        O  0.17855686  0.11393037  0.77147178    -0.57500
O151        O  0.16341632  0.13067752  0.82696834    -0.56300
C152        C  0.26245874  0.10019859  0.80459470     0.77400
O153        O  0.19283309  0.11533749  0.85334699    -0.58700
O154        O  0.20378960  0.08092283  0.78544872    -0.57100
O155        O  0.22963056  0.16717156  0.82466175    -0.57100
O156        O  0.25596604  0.12245545  0.79361877    -0.56300
O157        O  0.39058785  0.49485576  0.06807636    -0.57500
C158        C  0.35951486  0.07881526  0.09082248     0.75100
O159        O  0.36901634  0.06153698  0.01189090    -0.58700
C160        C  0.38233930  0.47786830  0.05136113     0.75100
C161        C  0.30141378  0.01688193  0.05099627     0.77500
Cd162      Cd  0.35824235  0.03519501  0.05196703     1.37500
O163        O  0.36692481  0.05414078  0.09545293    -0.57500
O164        O  0.31571171  0.01764087  0.07090179    -0.56300
C165        C  0.39458917  0.05688204  0.01328878     0.77400
O166        O  0.31290345  0.02617723  0.03118719    -0.58700
O167        O  0.35170341  0.08337645  0.06842003    -0.57100
O168        O  0.36278936  0.98791362  0.03626812    -0.57100
O169        O  0.40238350  0.04260598  0.03187217    -0.56300
O170        O  0.09582847  0.49051883  0.06752194    -0.57500
C171        C  0.12660491  0.41638385  0.09671936     0.75100
O172        O  0.12414771  0.42506653  0.01853699    -0.58700
C173        C  0.10721587  0.51057052  0.05615890     0.75100
C174        C  0.18937628  0.47168439  0.05454593     0.77500
Cd175      Cd  0.13203818  0.45685612  0.05575928     1.37500
O176        O  0.12006768  0.44154338  0.10004612    -0.57500
O177        O  0.17564096  0.47032890  0.07476095    -0.56300
C178        C  0.10185185  0.43635249  0.01191441     0.77400
O179        O  0.17687795  0.46499472  0.03447206    -0.58700
O180        O  0.13450120  0.41019150  0.07462765    -0.57100
O181        O  0.13112106  0.50630338  0.04783424    -0.57100
O182        O  0.09461193  0.45712591  0.02473009    -0.56300
O183        O  0.39254451  0.24245738  0.19763426    -0.57500
C184        C  0.36037273  0.16603738  0.16781895     0.75100
O185        O  0.36699351  0.17387915  0.24657198    -0.58700
C186        C  0.38307591  0.25981985  0.21349857     0.75100
C187        C  0.30288139  0.22517407  0.21374218     0.77500
Cd188      Cd  0.35885219  0.20580879  0.20982018     1.37500
O189        O  0.36999310  0.19025838  0.16509872    -0.57500
O190        O  0.31659145  0.22553383  0.19341766    -0.56300
C191        C  0.39182027  0.18097407  0.24916778     0.77400
O192        O  0.31438746  0.21368613  0.23245820    -0.58700
O193        O  0.35045794  0.16084435  0.18939847    -0.57100
O194        O  0.36208184  0.25256025  0.22574827    -0.57100
O195        O  0.40054172  0.19919584  0.23415415    -0.56300
O196        O  0.10670286  0.25150417  0.20246358    -0.57500
C197        C  0.12985730  0.33137721  0.17518739     0.75100
O198        O  0.12969052  0.32226744  0.25255059    -0.58700
C199        C  0.11672708  0.23436449  0.21809837     0.75100
C200        C  0.19573268  0.27756997  0.21603477     0.77500
Cd201      Cd  0.13784437  0.29048996  0.21543766     1.37500
O202        O  0.12691807  0.30560376  0.17129249    -0.57500
O203        O  0.18219221  0.28028204  0.19587170    -0.56300
C204        C  0.10543001  0.31371756  0.25606880     0.77400
O205        O  0.18295406  0.28301578  0.23634213    -0.58700
O206        O  0.13592324  0.33808687  0.19760586    -0.57100
O207        O  0.13728892  0.24256897  0.23040312    -0.57100
O208        O  0.09736760  0.29449830  0.24171286    -0.56300
C209        C  0.26434766  0.24985651  0.19296510    -0.26000
C210        C  0.27540541  0.23858197  0.21515688    -0.14100
C211        C  0.26091596  0.24220011  0.23806090     0.36500
C212        C  0.23569053  0.25628666  0.23818356    -0.25500
C213        C  0.22431899  0.26682198  0.21580997    -0.14700
C214        C  0.23937973  0.26427274  0.19306410     0.37600
N215        N  0.22943983  0.27646632  0.17010631    -0.89000
H216        H  0.27542115  0.24775493  0.17531448     0.18700
H217        H  0.22457759  0.25821679  0.25583660     0.18700
N218        N  0.27151926  0.23152826  0.26125630    -0.88000
H219        H  0.24281420  0.27242620  0.15504390     0.36100
H220        H  0.22938917  0.29788564  0.17266760     0.41200
H221        H  0.25706754  0.21800123  0.26884373     0.40800
H222        H  0.27383894  0.24809591  0.27387116     0.35700
C223        C  0.12846650  0.36697253  0.11056508    -0.26000
C224        C  0.12560186  0.39503118  0.11719529    -0.14100
C225        C  0.12274363  0.40183138  0.14304433     0.36500
C226        C  0.12385548  0.38082822  0.16149696    -0.25500
C227        C  0.12699378  0.35273331  0.15482788    -0.14700
C228        C  0.12860662  0.34582803  0.12887453     0.37600
N229        N  0.13093316  0.31743279  0.12104356    -0.89000
H230        H  0.13040332  0.36135779  0.09082276     0.18700
H231        H  0.12225889  0.38663009  0.18123321     0.18700
N232        N  0.11910513  0.43001239  0.15078582    -0.88000
H233        H  0.13357280  0.31603811  0.10149172     0.36100
H234        H  0.11222554  0.30787131  0.12500028     0.41200
H235        H  0.13499901  0.43519447  0.16308310     0.40800
H236        H  0.10071264  0.43138623  0.16083603     0.35700
C237        C  0.35422318  0.11694123  0.15402071    -0.26000
C238        C  0.36054987  0.14439875  0.14743512    -0.14100
C239        C  0.36668381  0.15014168  0.12184973     0.36500
C240        C  0.36571078  0.12871341  0.10360659    -0.25500
C241        C  0.35984810  0.10118834  0.11044763    -0.14700
C242        C  0.35430067  0.09545654  0.13604282     0.37600
N243        N  0.34835229  0.06780233  0.14394419    -0.89000
H244        H  0.34951051  0.11185468  0.17346721     0.18700
H245        H  0.37020505  0.13354720  0.08405679     0.18700
N246        N  0.37393517  0.17757484  0.11421326    -0.88000
H247        H  0.32904335  0.06776083  0.15246274     0.36100
H248        H  0.36272195  0.06221181  0.15760839     0.41200
H249        H  0.36001901  0.18398642  0.10043644     0.40800
H250        H  0.39331841  0.17676965  0.10589446     0.35700
C251        C  0.22904623  0.49340278  0.03243858    -0.26000
C252        C  0.21816071  0.48150705  0.05443600    -0.14100
C253        C  0.23531289  0.98572007  0.07628731     0.36500
C254        C  0.26114997  0.99833584  0.07473644    -0.25500
C255        C  0.27309256  0.00509930  0.05134546    -0.14700
C256        C  0.25559772  0.50455891  0.03202891     0.37600
N257        N  0.26577296  0.51661939  0.00919893    -0.89000
H258        H  0.21670075  0.49456598  0.01551254     0.18700
H259        H  0.27214045  0.00234872  0.09210300     0.18700
N260        N  0.22503539  0.97733126  0.10044328    -0.88000
H261        H  0.25257582  0.53263937  0.00402346     0.36100
H262        H  0.26522057  0.50152356  0.99502547     0.41200
H263        H  0.22398366  0.99480541  0.11211189     0.40800
H264        H  0.23907186  0.96355131  0.10833071     0.35700
C265        C  0.25482460  0.25031349  0.78029091    -0.26000
C266        C  0.26274528  0.26347758  0.80284352    -0.14100
C267        C  0.25774994  0.24990924  0.82604758     0.36500
C268        C  0.24544472  0.22361381  0.82611393    -0.25500
C269        C  0.23724983  0.21050670  0.80364676    -0.14700
C270        C  0.24160644  0.22433212  0.78044812     0.37600
N271        N  0.23289611  0.21197164  0.75710167    -0.89000
H272        H  0.25815373  0.26074720  0.76246317     0.18700
H273        H  0.24217451  0.21328269  0.84400214     0.18700
N274        N  0.26518673  0.26279955  0.84955625    -0.88000
H275        H  0.23886292  0.22412890  0.74175526     0.36100
H276        H  0.21150698  0.21199529  0.75712817     0.41200
H277        H  0.28646659  0.26413798  0.85002903     0.40800
H278        H  0.25937751  0.25045796  0.86490185     0.35700
C279        C  0.43617712  0.10608090  0.97227076    -0.26000
C280        C  0.46065033  0.09104372  0.96928088    -0.14100
C281        C  0.46149107  0.06326733  0.97751760     0.36500
C282        C  0.43883405  0.05207652  0.99040238    -0.25500
C283        C  0.41513113  0.06779262  0.99505535    -0.14700
C284        C  0.41340734  0.09476474  0.98506149     0.37600
N285        N  0.38940392  0.11128503  0.98945786    -0.89000
H286        H  0.43545438  0.12740196  0.96605114     0.18700
H287        H  0.44016660  0.03128298  0.99791785     0.18700
N288        N  0.48613155  0.04726903  0.97478974    -0.88000
H289        H  0.39133494  0.13055011  0.98073046     0.36100
H290        H  0.38812489  0.11514300  0.00887965     0.41200
H291        H  0.97838770  0.04884329  0.94689053     0.40800
H292        H  0.48387830  0.02781335  0.98310338     0.35700
C293        C  0.05788157  0.06220767  0.03646782    -0.26000
C294        C  0.07410567  0.08246393  0.02481770    -0.14100
C295        C  0.10275054  0.08137314  0.02741943     0.36500
C296        C  0.11467619  0.05843702  0.03941785    -0.25500
C297        C  0.09851633  0.03694975  0.04927617    -0.14700
C298        C  0.06976704  0.03968166  0.04910369     0.37600
N299        N  0.05273025  0.01855605  0.05991015    -0.89000
H300        H  0.03583880  0.06324812  0.03456819     0.18700
H301        H  0.13675008  0.05650346  0.03974231     0.18700
N302        N  0.11969581  0.10242647  0.01633644    -0.88000
H303        H  0.03206937  0.02310007  0.05705949     0.36100
H304        H  0.04640299  0.51390605  0.07147638     0.41200
H305        H  0.11778636  0.10094733  0.99671617     0.40800
H306        H  0.14029055  0.09880298  0.02042378     0.35700
C307        C  0.15336024  0.12091057  0.89460271    -0.26000
C308        C  0.14624436  0.12159239  0.86888901    -0.14100
C309        C  0.11801265  0.12148613  0.86257315     0.36500
C310        C  0.09807669  0.12111500  0.88163755    -0.25500
C311        C  0.10507434  0.12147938  0.90730368    -0.14700
C312        C  0.13321044  0.12095424  0.91383891     0.37600
N313        N  0.14134306  0.12056203  0.93990928    -0.89000
H314        H  0.17478095  0.12077111  0.89977309     0.18700
H315        H  0.07673987  0.12138877  0.87618561     0.18700
N316        N  0.10866067  0.12162193  0.83695905    -0.88000
H317        H  0.16264188  0.12097743  0.94147136     0.36100
H318        H  0.13494023  0.10169623  0.94752373     0.41200
H319        H  0.11728712  0.10479863  0.82737283     0.40800
H320        H  0.11467763  0.14009370  0.82838882     0.35700
C321        C  0.43735273  0.42845314  0.02940644    -0.26000
C322        C  0.42136433  0.40699208  0.01931110    -0.14100
C323        C  0.39287807  0.40710092  0.02338250     0.36500
C324        C  0.38091124  0.42914888  0.03684667    -0.25500
C325        C  0.39662864  0.45170331  0.04520974    -0.14700
C326        C  0.42527999  0.45106222  0.04196733     0.37600
N327        N  0.44161906  0.47460579  0.04886789    -0.89000
H328        H  0.45918629  0.42856482  0.02579462     0.18700
H329        H  0.35886701  0.42993415  0.03890847     0.18700
N330        N  0.37594473  0.38634600  0.01182159    -0.88000
H331        H  0.46200663  0.47164649  0.04346587     0.36100
H332        H  0.44149829  0.47602733  0.06855897     0.41200
H333        H  0.37734051  0.38887246  0.99226280     0.40800
H334        H  0.35538271  0.38952528  0.01655861     0.35700
C335        C  0.04059431  0.42665044  0.96878873    -0.26000
C336        C  0.03962500  0.39764185  0.96761266    -0.14100
C337        C  0.06237262  0.38237655  0.97630597     0.36500
C338        C  0.08447462  0.39603427  0.98767940    -0.25500
C339        C  0.08365056  0.42460892  0.99210341    -0.14700
C340        C  0.06219042  0.44032044  0.98129991     0.37600
N341        N  0.06153473  0.46988723  0.98433210    -0.89000
H342        H  0.02333051  0.43854985  0.96203067     0.18700
H343        H  0.10094339  0.38375102  0.99547470     0.18700
N344        N  0.06231590  0.35276062  0.97526591    -0.88000
H345        H  0.04415778  0.47820568  0.97595058     0.36100
H346        H  0.07842230  0.47798613  0.97455510     0.41200
H347        H  0.06399250  0.34532059  0.99372127     0.40800
H348        H  0.07962854  0.34634011  0.96519498     0.35700
C349        C  0.36785422  0.36435348  0.90552090    -0.26000
C350        C  0.39540684  0.36010521  0.89873667    -0.14100
C351        C  0.40172043  0.35467160  0.87314957     0.36500
C352        C  0.38058466  0.35407776  0.85505880    -0.25500
C353        C  0.35296873  0.35829997  0.86175144    -0.14700
C354        C  0.34661090  0.36319102  0.88748480     0.37600
N355        N  0.31863831  0.36614020  0.89545076    -0.89000
H356        H  0.36277844  0.36811335  0.92516957     0.18700
H357        H  0.38579512  0.34989851  0.83552007     0.18700
N358        N  0.42931476  0.34824458  0.86573875    -0.88000
H359        H  0.31752337  0.37004137  0.91485747     0.36100
H360        H  0.30900947  0.34708854  0.89251871     0.41200
H361        H  0.44074154  0.36643615  0.86711776     0.40800
H362        H  0.43009749  0.34227899  0.84675182     0.35700
C363        C  0.50063547  0.22968808  0.98543977    -0.26000
C364        C  0.01411940  0.21868378  0.96381165    -0.14100
C365        C  0.00880772  0.23277273  0.94098736     0.36500
C366        C  0.99670817  0.25921440  0.94166088    -0.25500
C367        C  0.48884788  0.27244082  0.96351100    -0.14700
C368        C  0.48765504  0.25575795  0.98540569     0.37600
N369        N  0.47285337  0.26496317  0.00736865    -0.89000
H370        H  0.49921697  0.21681169  0.00210602     0.18700
H371        H  0.99287405  0.26978469  0.92401279     0.18700
N372        N  0.01575482  0.22030278  0.91711761    -0.88000
H373        H  0.47459255  0.25058469  0.02201860     0.36100
H374        H  0.45215434  0.26563678  0.00258247     0.41200
H375        H  0.03716178  0.21863309  0.91631445     0.40800
H376        H  0.01002366  0.23299098  0.90220731     0.35700
C377        C  0.98580445  0.22875628  0.53060323    -0.26000
C378        C  0.47525869  0.22337273  0.55444968    -0.14100
C379        C  0.49035958  0.22957874  0.57646195     0.36500
C380        C  0.51612714  0.24222612  0.57446559    -0.25500
C381        C  0.02686155  0.24723291  0.55082413    -0.14700
C382        C  0.01169773  0.24131763  0.52877141     0.37600
N383        N  0.02255924  0.24767407  0.50433715    -0.89000
H384        H  0.97433982  0.22505113  0.51344328     0.18700
H385        H  0.52728991  0.24682788  0.59162094     0.18700
N386        N  0.47981325  0.22287282  0.60096237    -0.88000
H387        H  0.00884307  0.26085115  0.49524559     0.36100
H388        H  0.02371482  0.22925418  0.49393999     0.41200
H389        H  0.47876495  0.24111254  0.61161059     0.40800
H390        H  0.49366720  0.20956654  0.60974298     0.35700
C391        C  0.33495243  0.08849924  0.78121578    -0.26000
C392        C  0.33357794  0.06047510  0.77416566    -0.14100
C393        C  0.31071896  0.04474558  0.78193622     0.36500
C394        C  0.28855292  0.05769807  0.79404555    -0.25500
C395        C  0.28865564  0.08625964  0.79854712    -0.14700
C396        C  0.31256002  0.10159694  0.79322917     0.37600
N397        N  0.31350690  0.13061630  0.79917518    -0.89000
H398        H  0.35259835  0.10063983  0.77573954     0.18700
H399        H  0.27042285  0.04566206  0.79828503     0.18700
N400        N  0.30954153  0.01566131  0.77676632    -0.88000
H401        H  0.33244725  0.13895416  0.79411519     0.36100
H402        H  0.31185715  0.13258551  0.81880310     0.41200
H403        H  0.29238647  0.01185390  0.76556040     0.40800
H404        H  0.30684258  0.00530941  0.79391641     0.35700
C405        C  0.35723666  0.39962534  0.73985497    -0.26000
C406        C  0.32869839  0.39793484  0.74072157    -0.14100
C407        C  0.31290622  0.41692418  0.72673948     0.36500
C408        C  0.32587651  0.43931639  0.71470461    -0.25500
C409        C  0.35425118  0.44307188  0.71671478    -0.14700
C410        C  0.37014388  0.42205761  0.72804006     0.37600
N411        N  0.39935511  0.42414241  0.72875161    -0.89000
H412        H  0.36951008  0.38485012  0.75021893     0.18700
H413        H  0.31355805  0.45500687  0.70560173     0.18700
N414        N  0.28366072  0.41409343  0.72589985    -0.88000
H415        H  0.40753187  0.40642999  0.72022825     0.36100
H416        H  0.40545133  0.42433899  0.74766762     0.41200
H417        H  0.27933210  0.39550452  0.71648352     0.40800
H418        H  0.27500508  0.42988147  0.71517850     0.35700
C419        C  0.39068521  0.13772657  0.64140010    -0.26000
C420        C  0.38443501  0.13110846  0.61628354    -0.14100
C421        C  0.37790112  0.10329443  0.61036279     0.36500
C422        C  0.37835753  0.08285747  0.62940680    -0.25500
C423        C  0.38486093  0.08952477  0.65459950    -0.14700
C424        C  0.39098342  0.11747348  0.66040886     0.37600
N425        N  0.39753636  0.12565356  0.68568596    -0.89000
H426        H  0.39571845  0.15886126  0.64641732     0.18700
H427        H  0.37341198  0.06169514  0.62441169     0.18700
N428        N  0.37003550  0.09575683  0.58522395    -0.88000
H429        H  0.38345670  0.14072329  0.69139974     0.36100
H430        H  0.41697380  0.13465503  0.68551641     0.41200
H431        H  0.35035341  0.08736824  0.58601107     0.40800
H432        H  0.38335221  0.08031849  0.57879473     0.35700
C433        C  0.19009873  0.04786499  0.74140199    -0.26000
C434        C  0.17349855  0.06862740  0.75208290    -0.14100
C435        C  0.14502713  0.06770064  0.74812753     0.36500
C436        C  0.13376174  0.04597779  0.73379220    -0.25500
C437        C  0.15012818  0.02446522  0.72411980    -0.05100
C438        C  0.17875410  0.02574943  0.72751642     0.37600
N439        N  0.18613058  0.50144549  0.72641249    -0.89000
H440        H  0.21194118  0.04831741  0.74480391     0.18700
H441        H  0.11176346  0.04478195  0.73164687     0.18700
N442        N  0.12742365  0.08749622  0.76034359    -0.88000
H443        H  0.19347488  0.49395443  0.74362749     0.36100
H444        H  0.20293678  0.50680004  0.71522784     0.41200
H445        H  0.12880088  0.08422078  0.77980988     0.40800
H446        H  0.10699829  0.08395712  0.75549043     0.35700
C447        C  0.18607013  0.42645295  0.77138078    -0.26000
C448        C  0.16485145  0.40958303  0.76228781    -0.14100
C449        C  0.16663506  0.38067811  0.76551456     0.36500
C450        C  0.19021175  0.36925451  0.77666175    -0.25500
C451        C  0.21191312  0.38610208  0.78486392    -0.14700
C452        C  0.20971315  0.41506665  0.78229665     0.37600
N453        N  0.23221704  0.43270446  0.78906569    -0.89000
H454        H  0.18485657  0.44862273  0.76862603     0.18700
H455        H  0.19206699  0.34698196  0.77821614     0.18700
N456        N  0.14552963  0.36292375  0.75584403    -0.88000
H457        H  0.22718652  0.45348050  0.78619092     0.36100
H458        H  0.24837277  0.42827889  0.77669917     0.41200
H459        H  0.12791796  0.36649920  0.76659811     0.40800
H460        H  0.15068721  0.34213984  0.75851335     0.35700
C461        C  0.10737550  0.39419930  0.62121633    -0.26000
C462        C  0.11316622  0.38690212  0.64627858    -0.14100
C463        C  0.11994103  0.35912282  0.65161234     0.36500
C464        C  0.11994548  0.33914245  0.63221717    -0.25500
C465        C  0.11333508  0.34617192  0.60722275    -0.14700
C466        C  0.10735002  0.37420662  0.60175761     0.37600
N467        N  0.10128818  0.38261749  0.57646832    -0.89000
H468        H  0.10227740  0.41544362  0.61674298     0.18700
H469        H  0.12499064  0.31793644  0.63688106     0.18700
N470        N  0.12741799  0.35116991  0.67670393    -0.88000
H471        H  0.11547002  0.39773123  0.57117830     0.36100
H472        H  0.08185280  0.39161778  0.57641039     0.41200
H473        H  0.14715691  0.34285196  0.67604911     0.40800
H474        H  0.11404783  0.33560965  0.68262352     0.35700
C475        C  0.01590805  0.98669884  0.69263427    -0.26000
C476        C  0.02338202  0.47670803  0.71391531    -0.14100
C477        C  0.50595629  0.46988252  0.73507209     0.36500
C478        C  0.48062668  0.48384042  0.73474660    -0.25500
C479        C  0.47232853  0.99797276  0.71539566    -0.14700
C480        C  0.98970367  0.99859504  0.69201901     0.37600
N481        N  0.97946264  0.00984789  0.66878426    -0.89000
H482        H  0.02837531  0.98752132  0.67571663     0.18700
H483        H  0.46752509  0.48287232  0.75126383     0.18700
N484        N  0.51375347  0.45477318  0.75712776    -0.88000
H485        H  0.99315453  0.00616545  0.65389888     0.36100
H486        H  0.47796669  0.03710841  0.67821032     0.41200
H487        H  0.01527629  0.43760824  0.75116250     0.40800
H488        H  0.51393658  0.46847696  0.77242937     0.35700
C489        C  0.36829519  0.30028732  0.53984555    -0.26000
C490        C  0.35223460  0.27740608  0.54690254    -0.14100
C491        C  0.32385885  0.27830787  0.54256405     0.36500
C492        C  0.31228759  0.30123675  0.53035459    -0.25500
C493        C  0.32850699  0.32341040  0.52194524    -0.14700
C494        C  0.35673666  0.32337260  0.52756189     0.37600
N495        N  0.37391168  0.34564020  0.51911049    -0.89000
H496        H  0.39019176  0.29955708  0.54285923     0.18700
H497        H  0.29061619  0.30091650  0.52612194     0.18700
N498        N  0.30703847  0.25493902  0.54844920    -0.88000
H499        H  0.39439264  0.34162690  0.52344066     0.36100
H500        H  0.36842893  0.36327316  0.52939759     0.41200
H501        H  0.29823018  0.24780564  0.53167280     0.40800
H502        H  0.29128772  0.26161593  0.56038624     0.35700
C503        C  0.20861811  0.31538663  0.47087842    -0.26000
C504        C  0.21031536  0.34432956  0.47009861    -0.14100
C505        C  0.18741839  0.36012829  0.47780395     0.36500
C506        C  0.16385166  0.34684049  0.48716811    -0.25500
C507        C  0.16346279  0.31808815  0.49052912    -0.14700
C508        C  0.18584001  0.30224676  0.48175218     0.37600
N509        N  0.18627501  0.27289351  0.48547438    -0.89000
H510        H  0.22613699  0.30297407  0.46539959     0.18700
H511        H  0.14703808  0.35926818  0.49427096     0.18700
N512        N  0.18859356  0.38972401  0.47748549    -0.88000
H513        H  0.20311263  0.26810413  0.49679767     0.36100
H514        H  0.18916539  0.26338820  0.46791300     0.41200
H515        H  0.18558478  0.39684736  0.49595465     0.40800
H516        H  0.17240173  0.39694902  0.46646322     0.35700
C517        C  0.18218331  0.20663715  0.53357876    -0.26000
C518        C  0.15394221  0.20456883  0.53779508    -0.14100
C519        C  0.14012422  0.18009536  0.53086389     0.36500
C520        C  0.15445561  0.15888692  0.51826838    -0.25500
C521        C  0.18205495  0.16217144  0.51169629    -0.14700
C522        C  0.19622054  0.18604237  0.52010332     0.37600
N523        N  0.22463210  0.19030371  0.51464631    -0.89000
H524        H  0.19290512  0.22544771  0.53870751     0.18700
H525        H  0.14354822  0.14066243  0.51190252     0.18700
N526        N  0.11126773  0.17753602  0.53555954    -0.88000
H527        H  0.22725238  0.19212511  0.49514365     0.36100
H528        H  0.23560436  0.17309860  0.52096104     0.41200
H529        H  0.10835815  0.17774570  0.55514165     0.40800
H530        H  0.10404128  0.15848607  0.52903953     0.35700
C531        C  0.31942937  0.12441156  0.47496340    -0.26000
C532        C  0.29863091  0.14193182  0.46589581    -0.14100
C533        C  0.30108423  0.17071612  0.46972812     0.36500
C534        C  0.32171009  0.18080145  0.48575489    -0.25500
C535        C  0.34080636  0.16292191  0.49688274    -0.14700
C536        C  0.34067878  0.13466490  0.49027497     0.37600
N537        N  0.36092728  0.11619618  0.50037329    -0.89000
H538        H  0.31800172  0.10233997  0.47159405     0.18700
H539        H  0.32236261  0.20267551  0.49027425     0.18700
N540        N  0.28158506  0.18942741  0.45885229    -0.88000
H541        H  0.35827237  0.09628939  0.49322017     0.36100
H542        H  0.35774636  0.11496140  0.51994988     0.41200
H543        H  0.28422745  0.18860221  0.43920754     0.40800
H544        H  0.28576975  0.20975113  0.46424718     0.35700
C545        C  0.26152763  0.47587068  0.43981159    -0.26000
C546        C  0.26796091  0.46533887  0.46382157    -0.14100
C547        C  0.26173636  0.48158492  0.48529962     0.36500
C548        C  0.24941423  0.50768061  0.48232336    -0.25500
C549        C  0.24668972  0.02212362  0.46014523    -0.14700
C550        C  0.25240682  0.00630721  0.43831907     0.37600
N551        N  0.24423072  0.01577533  0.41386278    -0.89000
H552        H  0.26579925  0.46376436  0.42300159     0.18700
H553        H  0.24515624  0.51999429  0.49901191     0.18700
N554        N  0.26736332  0.47164357  0.51019256    -0.88000
H555        H  0.23106742  0.00101381  0.40607023     0.36100
H556        H  0.26163881  0.01690576  0.40241306     0.41200
H557        H  0.24893265  0.47109061  0.52022406     0.40800
H558        H  0.28021490  0.48591270  0.51912246     0.35700
C559        C  0.12077839  0.18543239  0.23290232    -0.26000
C560        C  0.10419966  0.20703143  0.22374855    -0.14100
C561        C  0.07557586  0.20407512  0.22495769     0.36500
C562        C  0.06411083  0.18061966  0.23636341    -0.25500
C563        C  0.08057591  0.15999066  0.24706551    -0.14700
C564        C  0.10927224  0.16194454  0.24466023     0.37600
N565        N  0.12660134  0.14157854  0.25621415    -0.89000
H566        H  0.14281372  0.18771185  0.23228777     0.18700
H567        H  0.04207738  0.17946638  0.23842417     0.18700
N568        N  0.05800914  0.22601201  0.21684652    -0.88000
H569        H  0.14718763  0.14692436  0.25401801     0.36100
H570        H  0.12383436  0.12296871  0.24645978     0.41200
H571        H  0.04656671  0.23271181  0.23242695     0.40800
H572        H  0.04445287  0.21796617  0.20348364     0.35700
C573        C  0.43008526  0.18538932  0.27961879    -0.26000
C574        C  0.41065394  0.16838871  0.26777602    -0.14100
C575        C  0.41260653  0.13949125  0.27054193     0.36500
C576        C  0.43569403  0.12814319  0.28256579    -0.25500
C577        C  0.45632765  0.14510790  0.29283320    -0.14700
C578        C  0.45274155  0.17412369  0.29234733     0.37600
N579        N  0.47285601  0.19215505  0.30331015    -0.89000
H580        H  0.42833446  0.20764664  0.27776151     0.18700
H581        H  0.43807639  0.10586445  0.28311363     0.18700
N582        N  0.39216417  0.12175920  0.25968814    -0.88000
H583        H  0.46644689  0.21278076  0.30232642     0.36100
H584        H  0.98207919  0.20287092  0.28737301     0.41200
H585        H  0.37393215  0.12529904  0.26950081     0.40800
H586        H  0.39714461  0.10095465  0.26263987     0.35700
C587        C  0.10224544  0.10794267  0.38628377    -0.26000
C588        C  0.10805199  0.10990597  0.36034143    -0.14100
C589        C  0.13590844  0.11050441  0.35278964     0.36500
C590        C  0.15692860  0.11007824  0.37102516    -0.25500
C591        C  0.15110290  0.10778087  0.39693586    -0.14700
C592        C  0.12329731  0.10623708  0.40442215     0.37600
N593        N  0.11616891  0.10293128  0.43049038    -0.89000
H594        H  0.08117177  0.10693927  0.39258365     0.18700
H595        H  0.17801824  0.11090349  0.36473945     0.18700
N596        N  0.14313389  0.11130950  0.32656593    -0.88000
H597        H  0.10469944  0.08477920  0.43222899     0.36100
H598        H  0.10374178  0.11955911  0.43583987     0.41200
H599        H  0.15512743  0.09391140  0.32254001     0.40800
H600        H  0.15507087  0.12890382  0.32344324     0.35700
C601        C  0.05982235  0.36551971  0.28925052    -0.26000
C602        C  0.03884934  0.34802955  0.29811747    -0.14100
C603        C  0.04318612  0.31918693  0.29758822     0.36500
C604        C  0.06684626  0.30842634  0.28609070    -0.25500
C605        C  0.08628072  0.32586036  0.27478617    -0.14700
C606        C  0.08337620  0.35469045  0.27749872     0.37600
N607        N  0.10295217  0.37305119  0.26637495    -0.89000
H608        H  0.05705503  0.38776198  0.28975884     0.18700
H609        H  0.06901033  0.28618215  0.28432794     0.18700
N610        N  0.02272237  0.30059836  0.30683987    -0.88000
H611        H  0.11039428  0.38607051  0.28060755     0.36100
H612        H  0.09283345  0.38532037  0.25314717     0.41200
H613        H  0.03158803  0.28835514  0.32084080     0.40800
H614        H  0.01684844  0.28759492  0.29198377     0.35700
C615        C  0.39403505  0.33173121  0.23957940    -0.26000
C616        C  0.42211048  0.33086437  0.24481695    -0.14100
C617        C  0.43801656  0.30875828  0.23515751     0.36500
C618        C  0.42512614  0.28684677  0.22230169    -0.25500
C619        C  0.39663945  0.28636452  0.21946817    -0.14700
C620        C  0.38115901  0.30949280  0.22729663     0.37600
N621        N  0.35212857  0.30986526  0.22376222    -0.89000
H622        H  0.38167488  0.34864603  0.24675638     0.18700
H623        H  0.43707848  0.26908641  0.21634996     0.18700
N624        N  0.46703198  0.30809689  0.23945775    -0.88000
H625        H  0.34717621  0.32739348  0.21320170     0.36100
H626        H  0.34283447  0.31178049  0.24149525     0.41200
H627        H  0.47558103  0.32505579  0.23016553     0.40800
H628        H  0.47573149  0.29038726  0.23131628     0.35700
C629        C  0.40195947  0.37446890  0.38909267    -0.26000
C630        C  0.39365168  0.37634561  0.36375319    -0.14100
C631        C  0.36510862  0.37583977  0.35854806     0.36500
C632        C  0.34610332  0.37421292  0.37845041    -0.25500
C633        C  0.35450221  0.37325071  0.40376350    -0.14700
C634        C  0.38282675  0.37290475  0.40895479     0.37600
N635        N  0.39238389  0.37051876  0.43439690    -0.89000
H636        H  0.42353901  0.37442494  0.39367511     0.18700
H637        H  0.32447867  0.37438811  0.37403872     0.18700
N638        N  0.35455856  0.37685911  0.33335573    -0.88000
H639        H  0.40473590  0.38769577  0.43832736     0.36100
H640        H  0.40454106  0.35282546  0.43556037     0.41200
H641        H  0.36262266  0.36030864  0.32302014     0.40800
H642        H  0.36037360  0.39555948  0.32503571     0.35700
C643        C  0.48954975  0.48343210  0.32469733    -0.26000
C644        C  0.48255814  0.47096826  0.30159708    -0.14100
C645        C  0.99071812  0.48245010  0.27945068     0.36500
C646        C  0.00219507  0.50917931  0.28067840    -0.25500
C647        C  0.01399615  0.02025831  0.30297527    -0.14700
C648        C  0.50621411  0.00731642  0.32666109     0.37600
N649        N  0.51609314  0.01770975  0.35029934    -0.89000
H650        H  0.48528532  0.47285897  0.34229326     0.18700
H651        H  0.00701442  0.51977329  0.26321748     0.18700
N652        N  0.98667636  0.46964580  0.25533239    -0.88000
H653        H  0.53047565  0.00371716  0.35726348     0.36100
H654        H  0.49966571  0.01844192  0.36300481     0.41200
H655        H  0.00559961  0.46867811  0.24611195     0.40800
H656        H  0.97378306  0.48233278  0.24472589     0.35700
O657        O  0.46021918  0.93067109  0.28444586    -0.57500
C658        C  0.43567515  0.84818420  0.26244445     0.75100
O659        O  0.49577337  0.85289189  0.31670038    -0.58700
C660        C  0.47373239  0.94078099  0.30273004     0.75100
C661        C  0.41644556  0.87745282  0.34232310     0.77500
Cd662      Cd  0.45743675  0.88288101  0.30248615     1.37500
O663        O  0.42934622  0.87364581  0.26377989    -0.57500
O664        O  0.41116012  0.88704618  0.32069453    -0.56300
C665        C  0.01363058  0.85818600  0.30377620     0.77400
O666        O  0.44106898  0.87001882  0.34571286    -0.58700
O667        O  0.45207404  0.83939463  0.27897839    -0.57100
O668        O  0.47808049  0.92461390  0.32104848    -0.57100
O669        O  0.50222864  0.87864775  0.28388905    -0.56300
O670        O  0.02733513  0.56300027  0.28480664    -0.57500
C671        C  0.05986748  0.64180642  0.26796264     0.75100
O672        O  0.99980808  0.64192424  0.31910515    -0.58700
C673        C  0.01913055  0.55070297  0.30461814     0.75100
C674        C  0.08199755  0.60877235  0.34247309     0.77500
Cd675      Cd  0.03676174  0.60772236  0.30656617     1.37500
O676        O  0.06342831  0.61577363  0.26727983    -0.57500
O677        O  0.08506969  0.60261555  0.31940398    -0.56300
C678        C  0.48434152  0.63324727  0.30094685     0.77400
O679        O  0.05764744  0.61432051  0.34943999    -0.58700
O680        O  0.04539120  0.65130149  0.28581167    -0.57100
O681        O  0.02083550  0.56438040  0.32501237    -0.57100
O682        O  0.99002374  0.61039637  0.29182672    -0.56300
O683        O  0.22209633  0.55937940  0.47518316    -0.57500
C684        C  0.19319586  0.63874996  0.49213709     0.75100
O685        O  0.25412619  0.63411225  0.44012899    -0.58700
C686        C  0.23091713  0.54616454  0.45605987     0.75100
C687        C  0.17292596  0.60636075  0.41402985     0.77500
Cd688      Cd  0.21549969  0.60335259  0.45269842     1.37500
O689        O  0.18544528  0.61377591  0.49012132    -0.57500
O690        O  0.16945670  0.59700128  0.43607645    -0.56300
C691        C  0.27057270  0.62360585  0.45605720     0.77400
O692        O  0.19708607  0.61443194  0.40892620    -0.58700
O693        O  0.21143653  0.64645794  0.47678988    -0.57100
O694        O  0.23031406  0.55888482  0.43517387    -0.57100
O695        O  0.26221298  0.60255428  0.46786096    -0.56300
O696        O  0.29390701  0.92971730  0.48420503    -0.57500
C697        C  0.31735800  0.84573289  0.50301801     0.75100
O698        O  0.25880068  0.85212003  0.45016721    -0.58700
C699        C  0.28283158  0.94050114  0.46488624     0.75100
C700        C  0.33681196  0.87629192  0.42421095     0.77500
Cd701      Cd  0.29680503  0.88231094  0.46456186     1.37500
O702        O  0.32227886  0.87148164  0.50477745    -0.57500
O703        O  0.34269327  0.88739326  0.44518511    -0.56300
C704        C  0.24164583  0.86166403  0.46598688     0.77400
O705        O  0.31242045  0.86784893  0.42175450    -0.58700
O706        O  0.30303063  0.83816673  0.48447809    -0.57100
O707        O  0.28016086  0.92480344  0.44586552    -0.57100
O708        O  0.24959990  0.88159095  0.47962274    -0.56300
O709        O  0.11479128  0.99076313  0.72688214    -0.57500
C710        C  0.11475465  0.90531295  0.66613272     0.75100
O711        O  0.15497516  0.93626162  0.72935713    -0.58700
C712        C  0.13638935  0.99855395  0.71586764     0.75100
C713        C  0.05446405  0.96174896  0.71309872     0.77500
Cd714      Cd  0.11162202  0.94468179  0.70864807     1.37500
O715        O  0.10871588  0.89814277  0.68843637    -0.57500
O716        O  0.06870247  0.96410063  0.69318811    -0.56300
C717        C  0.14651550  0.91958269  0.74592527     0.77400
O718        O  0.06616635  0.94967414  0.73142664    -0.58700
O719        O  0.11917233  0.93098617  0.66300047    -0.57100
O720        O  0.14584259  0.98232271  0.69903517    -0.57100
O721        O  0.12108496  0.91411590  0.74582643    -0.56300
O722        O  0.35524358  0.98848068  0.70206100    -0.57500
C723        C  0.38287285  0.56854209  0.67164605     0.75100
O724        O  0.37715748  0.55792137  0.74847326    -0.58700
C725        C  0.36537038  0.97060740  0.71694543     0.75100
C726        C  0.44367972  0.50998219  0.71258730     0.77500
Cd727      Cd  0.38671491  0.52653809  0.71124821     1.37500
O728        O  0.37383915  0.54421992  0.66791206    -0.57500
O729        O  0.42975920  0.51016135  0.69246886    -0.56300
C730        C  0.35308271  0.54902535  0.75227501     0.77400
O731        O  0.43188539  0.51938631  0.73223470    -0.58700
O732        O  0.39348204  0.57271188  0.69306684    -0.57100
O733        O  0.38733272  0.47850064  0.72338170    -0.57100
O734        O  0.34548599  0.52939185  0.73817851    -0.56300
O735        O  0.35319440  0.73128883  0.56192078    -0.57500
C736        C  0.38389085  0.65429603  0.59384258     0.75100
O737        O  0.38245655  0.66480226  0.51502958    -0.58700
C738        C  0.36479586  0.75011925  0.54906451     0.75100
C739        C  0.44546790  0.71458078  0.54977866     0.77500
Cd740      Cd  0.38901059  0.69557724  0.55294388     1.37500
O741        O  0.37956494  0.67984483  0.59795539    -0.57500
O742        O  0.43175459  0.71377105  0.57008845    -0.56300
C743        C  0.35751593  0.67145990  0.51222898     0.77400
O744        O  0.43384381  0.70413607  0.53054469    -0.58700
O745        O  0.39090876  0.64817527  0.57150211    -0.57100
O746        O  0.38823303  0.74448066  0.54044185    -0.57100
O747        O  0.34804899  0.68906026  0.52761338    -0.56300
O748        O  0.14427050  0.74592284  0.55604832    -0.57500
C749        C  0.11540046  0.82441627  0.58353694     0.75100
O750        O  0.12244824  0.81662765  0.50758095    -0.58700
C751        C  0.13744801  0.72973897  0.53814668     0.75100
C752        C  0.05596471  0.76279846  0.54024757     0.77500
Cd753      Cd  0.11183959  0.78328992  0.54275881     1.37500
O754        O  0.12265977  0.79943260  0.58688872    -0.57500
O755        O  0.07073529  0.76186211  0.55983353    -0.56300
C756        C  0.14706450  0.80836463  0.50574616     0.77400
O757        O  0.06613141  0.77570444  0.52155970    -0.58700
O758        O  0.10665388  0.82999115  0.56166373    -0.57100
O759        O  0.11840990  0.73791537  0.52385582    -0.57100
O760        O  0.15391340  0.78851330  0.51977360    -0.56300
O761        O  0.46814399  0.81327841  0.98213448    -0.57500
C762        C  0.43603075  0.89035009  0.00146608     0.75100
O763        O  0.49343408  0.89520102  0.94965496    -0.58700
C764        C  0.47946023  0.80129312  0.96345890     0.75100
C765        C  0.41790255  0.86128615  0.92170332     0.77500
Cd766      Cd  0.45980366  0.85811633  0.96075654     1.37500
O767        O  0.43092846  0.86464548  0.99983309    -0.57500
O768        O  0.41305784  0.85268939  0.94380863    -0.56300
C769        C  0.00909550  0.88033736  0.96660031     0.77400
O770        O  0.44247342  0.86830952  0.91734082    -0.58700
O771        O  0.45246476  0.90004770  0.98534809    -0.57100
O772        O  0.48001320  0.81500678  0.94307912    -0.57100
O773        O  0.50743609  0.86134025  0.97264724    -0.56300
O774        O  0.02936238  0.67587024  0.97982189    -0.57500
C775        C  0.05875079  0.59826002  0.00138424     0.75100
O776        O  0.00148183  0.59365401  0.95088507    -0.58700
C777        C  0.02101581  0.68764334  0.95983922     0.75100
C778        C  0.07965763  0.62525322  0.92184706     0.77500
Cd779      Cd  0.03676422  0.62988306  0.96001958     1.37500
O780        O  0.06316522  0.62413315  0.00036990    -0.57500
O781        O  0.08395047  0.63396221  0.94402355    -0.56300
C782        C  0.48221643  0.60487928  0.96700342     0.77400
O783        O  0.05510651  0.61855154  0.91690240    -0.58700
O784        O  0.04443274  0.58804602  0.98389056    -0.57100
O785        O  0.02151172  0.67298744  0.93995941    -0.57100
O786        O  0.98818717  0.62952237  0.97156538    -0.56300
O787        O  0.28645673  0.80092128  0.78921717    -0.57500
C788        C  0.31384075  0.88080707  0.76686410     0.75100
O789        O  0.25188060  0.88099292  0.81589741    -0.58700
C790        C  0.27340383  0.79115503  0.80796760     0.75100
C791        C  0.33082773  0.85598303  0.84687909     0.77500
Cd792      Cd  0.29051788  0.84833214  0.80702613     1.37500
O793        O  0.32173263  0.85596232  0.76985096    -0.57500
O794        O  0.33655686  0.84631419  0.82527135    -0.56300
C795        C  0.23694764  0.87108794  0.79840923     0.77400
O796        O  0.30589976  0.86239626  0.85053162    -0.58700
O797        O  0.29569394  0.88945891  0.78193520    -0.57100
O798        O  0.27076390  0.80714087  0.82681074    -0.57100
O799        O  0.24605833  0.84995845  0.78702163    -0.56300
O800        O  0.21696319  0.66928986  0.78446150    -0.57500
C801        C  0.18121351  0.59074399  0.76955575     0.75100
O802        O  0.24699889  0.59356661  0.81880520    -0.58700
C803        C  0.22377190  0.68215415  0.80441988     0.75100
C804        C  0.16619951  0.62376111  0.84553035     0.77500
Cd805      Cd  0.20810740  0.62507449  0.80635528     1.37500
O806        O  0.17751120  0.61674335  0.76896578    -0.57500
O807        O  0.16218843  0.63244548  0.82335510    -0.56300
C808        C  0.26299990  0.60232716  0.80159638     0.77400
O809        O  0.19043434  0.61566556  0.85025260    -0.58700
O810        O  0.19734387  0.58174310  0.78622588    -0.57100
O811        O  0.22129225  0.66913114  0.82502659    -0.57100
O812        O  0.25416454  0.62209019  0.78833849    -0.56300
O813        O  0.39050738  0.99809301  0.06644840    -0.57500
C814        C  0.36032950  0.57316085  0.09476269     0.75100
O815        O  0.36602884  0.56163230  0.01750902    -0.58700
C816        C  0.38277066  0.98072830  0.04985842     0.75100
C817        C  0.30054199  0.51446270  0.05435933     0.77500
Cd818      Cd  0.35730751  0.53138678  0.05531606     1.37500
O819        O  0.36549455  0.54795638  0.09952157    -0.57500
O820        O  0.31560908  0.51132354  0.07354209    -0.56300
C821        C  0.39091400  0.55433426  0.01548239     0.77400
O822        O  0.31145017  0.52676240  0.03571500    -0.58700
O823        O  0.35457958  0.57878162  0.07208690    -0.57100
O824        O  0.36175104  0.48507065  0.03854335    -0.57100
O825        O  0.39918065  0.53645247  0.03103251    -0.56300
O826        O  0.10250399  0.99310042  0.07108736    -0.57500
C827        C  0.13026887  0.91450528  0.09879183     0.75100
O828        O  0.12321353  0.92649603  0.01890529    -0.58700
C829        C  0.11169452  0.01003796  0.05485551     0.75100
C830        C  0.19139859  0.97012774  0.05537904     0.77500
Cd831      Cd  0.13384609  0.95496767  0.05801589     1.37500
O832        O  0.12152464  0.93899968  0.10204760    -0.57500
O833        O  0.17686584  0.97343415  0.07500799    -0.56300
C834        C  0.09786352  0.93229749  0.01941090     0.77400
O835        O  0.17968723  0.95844622  0.03678842    -0.58700
O836        O  0.14053743  0.90944181  0.07730533    -0.57100
O837        O  0.13212532  0.00209218  0.04205612    -0.57100
O838        O  0.09010561  0.94798013  0.03712249    -0.56300
O839        O  0.39089279  0.74114671  0.19680544    -0.57500
C840        C  0.35876720  0.66147537  0.17008582     0.75100
O841        O  0.36860098  0.67272776  0.24723933    -0.58700
C842        C  0.38246151  0.75796921  0.21366765     0.75100
C843        C  0.30272290  0.72273746  0.21477863     0.77500
Cd844      Cd  0.35861403  0.70347569  0.21031016     1.37500
O845        O  0.36865125  0.68547258  0.16657469    -0.57500
O846        O  0.31688285  0.72514485  0.19482345    -0.56300
C847        C  0.39354263  0.67977410  0.24876947     0.77400
O848        O  0.31398362  0.70980933  0.23283484    -0.58700
O849        O  0.34854867  0.65734957  0.19173077    -0.57100
O850        O  0.36246362  0.75008009  0.22699901    -0.57100
O851        O  0.40175550  0.69742312  0.23294848    -0.56300
O852        O  0.10108293  0.74993200  0.20267217    -0.57500
C853        C  0.13129163  0.82699629  0.17443052     0.75100
O854        O  0.12828430  0.81494678  0.25201750    -0.58700
C855        C  0.11074678  0.73208988  0.21780947     0.75100
C856        C  0.19309792  0.76968077  0.21601560     0.77500
Cd857      Cd  0.13610064  0.78553783  0.21406740     1.37500
O858        O  0.12863148  0.80136919  0.16975364    -0.57500
O859        O  0.17804384  0.76631367  0.19685312    -0.56300
C860        C  0.10324866  0.80820852  0.25378917     0.77400
O861        O  0.18202257  0.78156416  0.23488240    -0.58700
O862        O  0.13610609  0.83316535  0.19720895    -0.57100
O863        O  0.13280084  0.73840577  0.22880663    -0.57100
O864        O  0.09444293  0.79079295  0.23798481    -0.56300
C865        C  0.26191732  0.74235867  0.19361036    -0.26000
C866        C  0.27467800  0.73482547  0.21629590    -0.14100
C867        C  0.26090616  0.74024581  0.23940323     0.36500
C868        C  0.23480010  0.75286927  0.23905152    -0.25500
C869        C  0.22181780  0.75942556  0.21615726    -0.14700
C870        C  0.23583657  0.75428376  0.19330554     0.37600
N871        N  0.22374157  0.76126045  0.16954491    -0.89000
H872        H  0.27212719  0.73871058  0.17571531     0.18700
H873        H  0.22416614  0.75672286  0.25670117     0.18700
N874        N  0.27341400  0.73322068  0.26306715    -0.88000
H875        H  0.22240118  0.74322754  0.15869503     0.36100
H876        H  0.23679064  0.77502940  0.16021594     0.41200
H877        H  0.27407329  0.71176414  0.26417914     0.40800
H878        H  0.26109585  0.73985175  0.27824106     0.35700
C879        C  0.13378216  0.86490671  0.11121190    -0.26000
C880        C  0.12883183  0.89247212  0.11852083    -0.14100
C881        C  0.12335269  0.89807488  0.14423117     0.36500
C882        C  0.12376319  0.87637892  0.16196298    -0.25500
C883        C  0.12919415  0.84885852  0.15464267    -0.14700
C884        C  0.13373019  0.84309777  0.12878380     0.37600
N885        N  0.13911316  0.81530524  0.12040621    -0.89000
H886        H  0.13772842  0.86021798  0.09152017     0.18700
H887        H  0.11998085  0.88119638  0.18167273     0.18700
N888        N  0.11802830  0.92575592  0.15262273    -0.88000
H889        H  0.14383332  0.81494282  0.10113820     0.36100
H890        H  0.12095262  0.80411056  0.12239125     0.41200
H891        H  0.13268539  0.93094980  0.16617257     0.40800
H892        H  0.09885575  0.92604417  0.16141143     0.35700
C893        C  0.34937437  0.61250176  0.15647985    -0.26000
C894        C  0.35928899  0.63908679  0.15040939    -0.14100
C895        C  0.36989083  0.64344188  0.12586707     0.36500
C896        C  0.37019973  0.62166026  0.10814996    -0.25500
C897        C  0.36060689  0.59517243  0.11440582    -0.14700
C898        C  0.35008653  0.59064248  0.13881749     0.37600
N899        N  0.33931933  0.56409459  0.14551235    -0.89000
H900        H  0.34101777  0.60853125  0.17509064     0.18700
H901        H  0.37824400  0.62546970  0.08938127     0.18700
N902        N  0.38044454  0.66991189  0.11872645    -0.88000
H903        H  0.31886043  0.56665326  0.15076940     0.36100
H904        H  0.35006325  0.55692334  0.16124607     0.41200
H905        H  0.36952486  0.67678487  0.10299296     0.40800
H906        H  0.40087065  0.66733656  0.11332663     0.35700
C907        C  0.23216541  0.98675664  0.03067462    -0.26000
C908        C  0.22014301  0.98049728  0.05414030    -0.14100
C909        C  0.23452434  0.48049342  0.07633328     0.36500
C910        C  0.26114576  0.49137660  0.07586109    -0.25500
C911        C  0.27197304  0.50369117  0.05395310    -0.14700
C912        C  0.25842778  0.99875963  0.02908351     0.37600
N913        N  0.27019760  0.00399482  0.00477623    -0.89000
H914        H  0.22102041  0.98263077  0.01341434     0.18700
H915        H  0.27335666  0.49016868  0.09286842     0.18700
N916        N  0.22435807  0.46816923  0.09907936    -0.88000
H917        H  0.25696483  0.01706825  0.99486728     0.36100
H918        H  0.27135474  0.98523305  0.99501718     0.41200
H919        H  0.22508329  0.48306486  0.11344576     0.40800
H920        H  0.23743595  0.45198504  0.10402667     0.35700
C921        C  0.26473850  0.74600794  0.78613716    -0.26000
C922        C  0.26081431  0.76306312  0.80741970    -0.14100
C923        C  0.24321204  0.75378185  0.82689189     0.36500
C924        C  0.23098873  0.72761111  0.82519361    -0.25500
C925        C  0.23513516  0.71054331  0.80407989    -0.14700
C926        C  0.25184579  0.72003794  0.78409527     0.37600
N927        N  0.25595863  0.70322642  0.76195799    -0.89000
H928        H  0.27778994  0.75301756  0.77088409     0.18700
H929        H  0.21795072  0.72066883  0.84050890     0.18700
N930        N  0.23716603  0.77095771  0.84828541    -0.88000
H931        H  0.26676380  0.68561752  0.76738407     0.36100
H932        H  0.26825452  0.71355870  0.74876921     0.41200
H933        H  0.24265880  0.76020513  0.86463429     0.40800
H934        H  0.21605555  0.77426364  0.84882679     0.35700
C935        C  0.43302712  0.60666447  0.97908871    -0.26000
C936        C  0.45593385  0.59057445  0.97244065    -0.14100
C937        C  0.45465426  0.56157294  0.97558969     0.36500
C938        C  0.43205554  0.54993764  0.98818100    -0.25500
C939        C  0.41036909  0.56646451  0.99703634    -0.14700
C940        C  0.41017109  0.59491939  0.99121802     0.37600
N941        N  0.38772944  0.61215611  0.99908495    -0.89000
H942        H  0.43367690  0.62884378  0.97624901     0.18700
H943        H  0.43194529  0.52795107  0.99216275     0.18700
N944        N  0.47702894  0.54425302  0.96769200    -0.88000
H945        H  0.39055704  0.63244865  0.99283159     0.36100
H946        H  0.38782855  0.61296901  0.01882511     0.41200
H947        H  0.97759694  0.54556420  0.94643190     0.40800
H948        H  0.47327329  0.52359322  0.97238574     0.35700
C949        C  0.05356994  0.55791259  0.02963112    -0.26000
C950        C  0.06983728  0.58001194  0.02127132    -0.14100
C951        C  0.09720579  0.58185350  0.02938813     0.36500
C952        C  0.10842411  0.56005176  0.04358554    -0.25500
C953        C  0.09278183  0.53663942  0.04991502    -0.14700
C954        C  0.06456640  0.53647939  0.04431687     0.37600
N955        N  0.04765146  0.51358912  0.05179099    -0.89000
H956        H  0.03238811  0.55678466  0.02373500     0.18700
H957        H  0.13001988  0.56038314  0.04810945     0.18700
N958        N  0.11403556  0.60472239  0.02171944    -0.88000
H959        H  0.02765106  0.51615559  0.04516376     0.36100
H960        H  0.05577898  0.01898601  0.07945007     0.41200
H961        H  0.11669590  0.60338866  0.00215819     0.40800
H962        H  0.13351882  0.60313372  0.02969131     0.35700
C963        C  0.15043529  0.62216260  0.89059148    -0.26000
C964        C  0.14373281  0.62339722  0.86481960    -0.14100
C965        C  0.11560362  0.62457001  0.85813107     0.36500
C966        C  0.09537249  0.62416964  0.87694257    -0.25500
C967        C  0.10207478  0.62361858  0.90266390    -0.14700
C968        C  0.13005681  0.62263546  0.90954787     0.37600
N969        N  0.13779930  0.62224133  0.93572255    -0.89000
H970        H  0.17175388  0.62133277  0.89604593     0.18700
H971        H  0.07410521  0.62515106  0.87131152     0.18700
N972        N  0.10667701  0.62608117  0.83243014    -0.88000
H973        H  0.15907565  0.62245552  0.93756189     0.36100
H974        H  0.13105603  0.60350930  0.94335021     0.41200
H975        H  0.11469194  0.60924522  0.82245804     0.40800
H976        H  0.11372563  0.64455325  0.82451591     0.35700
C977        C  0.43839883  0.93071714  0.03043049    -0.26000
C978        C  0.42283458  0.90909864  0.02004254    -0.14100
C979        C  0.39429141  0.90883008  0.02392158     0.36500
C980        C  0.38171985  0.93144787  0.03616254    -0.25500
C981        C  0.39709150  0.95419759  0.04469465    -0.14700
C982        C  0.42588075  0.95313084  0.04297506     0.37600
N983        N  0.44213702  0.97589263  0.05189334    -0.89000
H984        H  0.46034907  0.93083532  0.02752530     0.18700
H985        H  0.35961649  0.93221149  0.03752282     0.18700
N986        N  0.37794817  0.88676062  0.01374856    -0.88000
H987        H  0.46283123  0.97254301  0.04792290     0.36100
H988        H  0.44034770  0.97640691  0.07157309     0.41200
H989        H  0.37904021  0.88793736  0.99405188     0.40800
H990        H  0.35737876  0.88950109  0.01858727     0.35700
C991        C  0.03248197  0.92282183  0.98168985    -0.26000
C992        C  0.03423659  0.89480190  0.97495672    -0.14100
C993        C  0.05854151  0.88017907  0.98015447     0.36500
C994        C  0.08023341  0.89343192  0.99275411    -0.25500
C995        C  0.07763827  0.92084693  0.00124590    -0.14700
C996        C  0.05380127  0.93595188  0.99493494     0.37600
N997        N  0.05098005  0.96435991  0.00267584    -0.89000
H998        H  0.01372659  0.93404933  0.97800674     0.18700
H999        H  0.09837966  0.88164303  0.99740070     0.18700
N1000       N  0.06096868  0.85161834  0.97323732    -0.88000
H1001       H  0.03214346  0.97234965  0.99698007     0.36100
H1002       H  0.06604154  0.97576308  0.99324165     0.41200
H1003       H  0.06487285  0.84025230  0.98960563     0.40800
H1004       H  0.07786242  0.84955443  0.96122788     0.35700
C1005       C  0.36828606  0.86132068  0.91011000    -0.26000
C1006       C  0.39582142  0.86244031  0.90225198    -0.14100
C1007       C  0.40161855  0.86274757  0.87608255     0.36500
C1008       C  0.37999873  0.86109485  0.85859988    -0.25500
C1009       C  0.35254039  0.85928861  0.86644476    -0.14700
C1010       C  0.34667345  0.85940865  0.89258230     0.37600
N1011       N  0.31898215  0.85638026  0.90132291    -0.89000
H1012       H  0.36359046  0.86111979  0.93012032     0.18700
H1013       H  0.38470239  0.86101588  0.83859059     0.18700
N1014       N  0.42941953  0.86360008  0.86722794    -0.88000
H1015       H  0.31815513  0.85699533  0.92104595     0.36100
H1016       H  0.31235208  0.83664106  0.89599731     0.41200
H1017       H  0.43707653  0.88328766  0.87130733     0.40800
H1018       H  0.43020504  0.86150602  0.84757659     0.35700
C1019       C  0.49992023  0.72932965  0.98716314    -0.26000
C1020       C  0.01027523  0.71660046  0.96000681    -0.14100
C1021       C  0.00039258  0.72957009  0.93785695     0.36500
C1022       C  0.98876287  0.75609873  0.93947203    -0.25500
C1023       C  0.49197565  0.77307390  0.96527950    -0.14700
C1024       C  0.48798000  0.75586977  0.98658830     0.37600
N1025       N  0.47141694  0.76505898  0.00744748    -0.89000
H1026       H  0.49589933  0.71590472  0.00309721     0.18700
H1027       H  0.98140234  0.76587194  0.92239257     0.18700
N1028       N  0.00172163  0.71577617  0.91378382    -0.88000
H1029       H  0.47170729  0.75057190  0.02207184     0.36100
H1030       H  0.45121038  0.76605691  0.00112320     0.41200
H1031       H  0.02231128  0.71442196  0.90864308     0.40800
H1032       H  0.99216731  0.72756497  0.89978689     0.35700
C1033       C  0.98476346  0.73660049  0.52068067    -0.26000
C1034       C  0.47329651  0.72757252  0.54875275    -0.14100
C1035       C  0.48479514  0.74065457  0.57021967     0.36500
C1036       C  0.51103237  0.75246531  0.56880773    -0.25500
C1037       C  0.02869295  0.74875468  0.53984332    -0.14700
C1038       C  0.01069693  0.74943918  0.51898533     0.37600
N1039       N  0.01855451  0.76300212  0.49608111    -0.89000
H1040       H  0.97079977  0.73824603  0.50490314     0.18700
H1041       H  0.51945637  0.76227238  0.58548572     0.18700
N1042       N  0.46942228  0.74306981  0.59325058    -0.88000
H1043       H  0.00414284  0.77837946  0.49225150     0.36100
H1044       H  0.01781137  0.74844529  0.48143197     0.41200
H1045       H  0.45865703  0.76171326  0.59244196     0.40800
H1046       H  0.48273182  0.74444765  0.60865153     0.35700
C1047       C  0.33367759  0.59085904  0.77341867    -0.26000
C1048       C  0.33381175  0.56196860  0.77067061    -0.14100
C1049       C  0.31292778  0.54646327  0.78248461     0.36500
C1050       C  0.29137318  0.56007330  0.79509986    -0.25500
C1051       C  0.28966334  0.58904992  0.79537694    -0.14700
C1052       C  0.31162865  0.60459536  0.78529301     0.37600
N1053       N  0.31083681  0.63431519  0.78611282    -0.89000
H1054       H  0.34971848  0.60290008  0.76456077     0.18700
H1055       H  0.27476571  0.54789004  0.80284323     0.18700
N1056       N  0.31301009  0.51687411  0.78097040    -0.88000
H1057       H  0.32833973  0.64265599  0.77769532     0.36100
H1058       H  0.31124110  0.64028557  0.80510475     0.41200
H1059       H  0.29487247  0.51059882  0.77226429     0.40800
H1060       H  0.31299645  0.50908290  0.79937676     0.35700
C1061       C  0.35378350  0.89841555  0.74235619    -0.26000
C1062       C  0.32574925  0.89981314  0.74788415    -0.14100
C1063       C  0.31016427  0.92204781  0.73820210     0.36500
C1064       C  0.32337342  0.94364154  0.72529286    -0.25500
C1065       C  0.35186433  0.94385062  0.72245242    -0.14700
C1066       C  0.36700042  0.92040541  0.72998103     0.37600
N1067       N  0.39593977  0.91930116  0.72587980    -0.89000
H1068       H  0.36587493  0.88129686  0.74937205     0.18700
H1069       H  0.31163601  0.96151840  0.71943217     0.18700
N1070       N  0.28116728  0.92333070  0.74267459    -0.88000
H1071       H  0.40022132  0.90169386  0.71505201     0.36100
H1072       H  0.40546167  0.91694256  0.74340377     0.41200
H1073       H  0.27224238  0.90655353  0.73333247     0.40800
H1074       H  0.27281075  0.94122664  0.73475202     0.35700
C1075       C  0.38821130  0.63915866  0.63902731    -0.26000
C1076       C  0.38147832  0.63266070  0.61395548    -0.14100
C1077       C  0.37325456  0.60527288  0.60833932     0.36500
C1078       C  0.37347965  0.58478222  0.62729654    -0.25500
C1079       C  0.38146072  0.59099285  0.65217055    -0.14700
C1080       C  0.38816753  0.61879528  0.65805442     0.37600
N1081       N  0.39471489  0.62666922  0.68342601    -0.89000
H1082       H  0.39408204  0.66011825  0.64386710     0.18700
H1083       H  0.36751846  0.56386082  0.62240507     0.18700
N1084       N  0.36398910  0.59827521  0.58349888    -0.88000
H1085       H  0.38073550  0.64182737  0.68921754     0.36100
H1086       H  0.41422018  0.63545704  0.68342423     0.41200
H1087       H  0.34397880  0.59084684  0.58498901     0.40800
H1088       H  0.37627512  0.58222360  0.57658141     0.35700
C1089       C  0.18298987  0.54811290  0.74408376    -0.26000
C1090       C  0.16774247  0.57106783  0.75217501    -0.14100
C1091       C  0.13951983  0.57235418  0.74663253     0.36500
C1092       C  0.12722420  0.55030965  0.73325993    -0.25500
C1093       C  0.14259674  0.52704144  0.72578699    -0.05100
C1094       C  0.17063808  0.52603397  0.73141100     0.37600
N1095       N  0.19593335  0.00354497  0.71874810    -0.89000
H1096       H  0.20447696  0.54657492  0.74886408     0.18700
H1097       H  0.10539261  0.55058725  0.72980313     0.18700
N1098       N  0.12320233  0.59495112  0.75596525    -0.88000
H1099       H  0.21624817  0.00687899  0.72410005     0.36100
H1100       H  0.19566805  0.00386204  0.69902420     0.41200
H1101       H  0.12323130  0.59391627  0.77569371     0.40800
H1102       H  0.10284741  0.59264931  0.75035282     0.35700
C1103       C  0.18551978  0.92418184  0.77547315    -0.26000
C1104       C  0.16610566  0.90704382  0.76376003    -0.14100
C1105       C  0.16849596  0.87813293  0.76599885     0.36500
C1106       C  0.19082286  0.86691964  0.77920567    -0.25500
C1107       C  0.21097998  0.88397870  0.78999838    -0.14700
C1108       C  0.20796348  0.91300075  0.78856972     0.37600
N1109       N  0.22846825  0.93100457  0.79897142    -0.89000
H1110       H  0.18385248  0.94641563  0.77331781     0.18700
H1111       H  0.19325930  0.84465504  0.77999545     0.18700
N1112       N  0.14970452  0.86028565  0.75296227    -0.88000
H1113       H  0.22286775  0.95173422  0.79667838     0.36100
H1114       H  0.24639723  0.92817023  0.78848503     0.41200
H1115       H  0.13053199  0.86265326  0.76146935     0.40800
H1116       H  0.15522720  0.83955595  0.75530124     0.35700
C1117       C  0.10929868  0.89289222  0.62031981    -0.26000
C1118       C  0.11620573  0.88475623  0.64493195    -0.14100
C1119       C  0.12356721  0.85682543  0.64901156     0.36500
C1120       C  0.12423845  0.83792450  0.62867379    -0.25500
C1121       C  0.11650641  0.84579388  0.60416061    -0.14700
C1122       C  0.10885316  0.87374219  0.60015281     0.37600
N1123       N  0.09996539  0.88280941  0.57578845    -0.89000
H1124       H  0.10323508  0.91410179  0.61682127     0.18700
H1125       H  0.13013301  0.81670537  0.63234003     0.18700
N1126       N  0.13032851  0.84741309  0.67384273    -0.88000
H1127       H  0.11255745  0.89914875  0.57008580     0.36100
H1128       H  0.08004813  0.89040387  0.57760410     0.41200
H1129       H  0.15012304  0.83925019  0.67331870     0.40800
H1130       H  0.11688981  0.83139845  0.67854237     0.35700
C1131       C  0.01433560  0.49293106  0.69353947    -0.26000
C1132       C  0.02605932  0.97343527  0.71428404    -0.14100
C1133       C  0.50721402  0.96867937  0.73503875     0.36500
C1134       C  0.48153106  0.98194356  0.73574545    -0.25500
C1135       C  0.47168000  0.49799054  0.71313213    -0.14700
C1136       C  0.98895776  0.50644166  0.69407977     0.37600
N1137       N  0.98087861  0.52306697  0.67302326    -0.89000
H1138       H  0.02710546  0.49540254  0.67694006     0.18700
H1139       H  0.46820446  0.97895546  0.75189321     0.18700
N1140       N  0.51547232  0.95125211  0.75560981    -0.88000
H1141       H  0.98067652  0.51047680  0.65693326     0.36100
H1142       H  0.49539366  0.52757020  0.66517698     0.41200
H1143       H  0.01830823  0.93617519  0.75275238     0.40800
H1144       H  0.50066534  0.95128745  0.76989248     0.35700
C1145       C  0.36671446  0.80081319  0.53977924    -0.26000
C1146       C  0.35113486  0.77648474  0.54234384    -0.14100
C1147       C  0.32361581  0.77651063  0.53445602     0.36500
C1148       C  0.31223762  0.80075668  0.52442418    -0.25500
C1149       C  0.32813554  0.82455947  0.52053813    -0.14700
C1150       C  0.35550142  0.82488388  0.52886051     0.37600
N1151       N  0.37239449  0.84867416  0.52425595    -0.89000
H1152       H  0.38806445  0.80058939  0.54519457     0.18700
H1153       H  0.29134994  0.80035598  0.51763389     0.18700
N1154       N  0.30807630  0.75125580  0.53435653    -0.88000
H1155       H  0.39240134  0.84503070  0.53030730     0.36100
H1156       H  0.36482965  0.86488334  0.53536782     0.41200
H1157       H  0.31717822  0.73794695  0.52115365     0.40800
H1158       H  0.28820125  0.75479369  0.52793529     0.35700
C1159       C  0.21272528  0.81988362  0.46951920    -0.26000
C1160       C  0.21459720  0.84880031  0.47017297    -0.14100
C1161       C  0.19202020  0.86437074  0.47888079     0.36500
C1162       C  0.16860287  0.85076594  0.48804633    -0.25500
C1163       C  0.16786022  0.82180562  0.48959764    -0.14700
C1164       C  0.18989037  0.80629570  0.47964745     0.37600
N1165       N  0.18968166  0.77668010  0.48083702    -0.89000
H1166       H  0.22998735  0.80766010  0.46306355     0.18700
H1167       H  0.15194952  0.86292588  0.49583061     0.18700
N1168       N  0.19320970  0.89397351  0.47929743    -0.88000
H1169       H  0.20665681  0.77032175  0.49129401     0.36100
H1170       H  0.19186031  0.76897011  0.46247022     0.41200
H1171       H  0.19044836  0.90056931  0.49795635     0.40800
H1172       H  0.17689968  0.90152920  0.46861191     0.35700
C1173       C  0.18048212  0.70285875  0.53239437    -0.26000
C1174       C  0.15180572  0.70339871  0.53262505    -0.14100
C1175       C  0.13726086  0.68016070  0.52366668     0.36500
C1176       C  0.15157339  0.65800090  0.51247408    -0.25500
C1177       C  0.18010680  0.65878778  0.50972726    -0.14700
C1178       C  0.19476215  0.68093147  0.52096834     0.37600
N1179       N  0.22405610  0.68180838  0.52102705    -0.89000
H1180       H  0.19184688  0.72044484  0.53954793     0.18700
H1181       H  0.14022518  0.64094661  0.50431373     0.18700
N1182       N  0.10791356  0.67964310  0.52518792    -0.88000
H1183       H  0.23121407  0.68330761  0.50248602     0.36100
H1184       H  0.23132243  0.66344699  0.52895619     0.41200
H1185       H  0.10257853  0.67992115  0.54433264     0.40800
H1186       H  0.10029025  0.66114887  0.51775134     0.35700
C1187       C  0.31781159  0.61948159  0.47307669    -0.26000
C1188       C  0.29702717  0.63639671  0.46313982    -0.14100
C1189       C  0.29911194  0.66535117  0.46594587     0.36500
C1190       C  0.32003635  0.67645722  0.48106742    -0.25500
C1191       C  0.33956923  0.65936844  0.49259781    -0.14700
C1192       C  0.33910653  0.63075130  0.48764591     0.37600
N1193       N  0.35884770  0.61283058  0.49903522    -0.89000
H1194       H  0.31648409  0.59720592  0.47100147     0.18700
H1195       H  0.32051223  0.69852979  0.48467347     0.18700
N1196       N  0.27876956  0.68321994  0.45517805    -0.88000
H1197       H  0.36880677  0.60192550  0.48460516     0.36100
H1198       H  0.34841389  0.59853051  0.51026361     0.41200
H1199       H  0.28071688  0.68186145  0.43553389     0.40800
H1200       H  0.28260913  0.70384416  0.45994834     0.35700
C1201       C  0.26539604  0.98057446  0.44046436    -0.26000
C1202       C  0.27237214  0.96947230  0.46408364    -0.14100
C1203       C  0.26660591  0.98518268  0.48601778     0.36500
C1204       C  0.25388977  0.01127511  0.48385811    -0.25500
C1205       C  0.24263461  0.51790703  0.45829928    -0.14700
C1206       C  0.24866048  0.50156172  0.43687465     0.37600
N1207       N  0.24116151  0.51049853  0.41206013    -0.89000
H1208       H  0.26939187  0.96887510  0.42335776     0.18700
H1209       H  0.24977131  0.02313149  0.50084977     0.18700
N1210       N  0.27296845  0.97458263  0.51053282    -0.88000
H1211       H  0.22813353  0.49564341  0.40427545     0.36100
H1212       H  0.25888277  0.51123805  0.40095380     0.41200
H1213       H  0.25481891  0.97354447  0.52096241     0.40800
H1214       H  0.28593010  0.98870889  0.51950413     0.35700
C1215       C  0.11266273  0.68371882  0.23298798    -0.26000
C1216       C  0.09667926  0.70591249  0.22429459    -0.14100
C1217       C  0.06789630  0.70433768  0.22635182     0.36500
C1218       C  0.05608866  0.68195457  0.23932430    -0.25500
C1219       C  0.07233024  0.66087828  0.24958726    -0.14700
C1220       C  0.10076362  0.66105048  0.24539559     0.37600
N1221       N  0.11764645  0.63941009  0.25549786    -0.89000
H1222       H  0.13472156  0.68474695  0.23121526     0.18700
H1223       H  0.03418409  0.68159362  0.24252158     0.18700
N1224       N  0.05084431  0.72608918  0.21668362    -0.88000
H1225       H  0.13829448  0.64335026  0.25176353     0.36100
H1226       H  0.11281331  0.62119359  0.24582838     0.41200
H1227       H  0.05425623  0.74373103  0.22767162     0.40800
H1228       H  0.03016472  0.72108341  0.21892638     0.35700
C1229       C  0.43174980  0.68541829  0.27930287    -0.26000
C1230       C  0.41277406  0.66788577  0.26739172    -0.14100
C1231       C  0.41502889  0.63906026  0.27069291     0.36500
C1232       C  0.43728931  0.62834290  0.28430076    -0.25500
C1233       C  0.45750013  0.64574299  0.29452975    -0.14700
C1234       C  0.45391178  0.67461607  0.29302372     0.37600
N1235       N  0.47370063  0.69301488  0.30373324    -0.89000
H1236       H  0.43009709  0.70762494  0.27692884     0.18700
H1237       H  0.43986481  0.60611547  0.28549060     0.18700
N1238       N  0.39628998  0.62067687  0.25823869    -0.88000
H1239       H  0.46354188  0.70614531  0.31640053     0.36100
H1240       H  0.98957633  0.69076485  0.29831438     0.41200
H1241       H  0.37732268  0.62277310  0.26719589     0.40800
H1242       H  0.40227683  0.60008886  0.26064395     0.35700
C1243       C  0.10084571  0.60353484  0.38594816    -0.26000
C1244       C  0.10559271  0.60896682  0.36035062    -0.14100
C1245       C  0.13276762  0.61413313  0.35234411     0.36500
C1246       C  0.15443768  0.61354050  0.36995726    -0.25500
C1247       C  0.14967333  0.60762123  0.39561494    -0.14700
C1248       C  0.12235522  0.60279366  0.40348673     0.37600
N1249       N  0.11608139  0.59743641  0.42945224    -0.89000
H1250       H  0.08020993  0.59950444  0.39247080     0.18700
H1251       H  0.17507684  0.61755844  0.36344053     0.18700
N1252       N  0.13844260  0.62051486  0.32644712    -0.88000
H1253       H  0.10633271  0.57821144  0.43054281     0.36100
H1254       H  0.10236233  0.61256140  0.43571985     0.41200
H1255       H  0.15247538  0.60599375  0.31958337     0.40800
H1256       H  0.14769384  0.64000605  0.32577574     0.35700
C1257       C  0.06196430  0.86093861  0.29025134    -0.26000
C1258       C  0.03996725  0.84453836  0.29845055    -0.14100
C1259       C  0.04119103  0.81559764  0.29538756     0.36500
C1260       C  0.06337222  0.80390993  0.28228250    -0.25500
C1261       C  0.08430887  0.82054702  0.27234744    -0.14700
C1262       C  0.08409262  0.84925865  0.27701361     0.37600
N1263       N  0.10503584  0.86670203  0.26653696    -0.89000
H1264       H  0.06078699  0.88321574  0.29240009     0.18700
H1265       H  0.06357332  0.78184777  0.27855115     0.18700
N1266       N  0.01869407  0.79852816  0.30330312    -0.88000
H1267       H  0.10198070  0.88728418  0.27198380     0.36100
H1268       H  0.10307135  0.86615499  0.24687522     0.41200
H1269       H  0.01812772  0.79896363  0.32303593     0.40800
H1270       H  0.02199763  0.77790936  0.29809933     0.35700
C1271       C  0.39492744  0.82956651  0.24038642    -0.26000
C1272       C  0.42330110  0.82888050  0.24390844    -0.14100
C1273       C  0.43863773  0.80712920  0.23289030     0.36500
C1274       C  0.42495456  0.78520232  0.22066667    -0.25500
C1275       C  0.39629602  0.78450978  0.21953490    -0.14700
C1276       C  0.38130939  0.80744498  0.22863280     0.37600
N1277       N  0.35209745  0.80785430  0.22682726    -0.89000
H1278       H  0.38299691  0.84627053  0.24854319     0.18700
H1279       H  0.43658361  0.76768861  0.21364807     0.18700
N1280       N  0.46794576  0.80700085  0.23485093    -0.88000
H1281       H  0.34646569  0.82547707  0.21669716     0.36100
H1282       H  0.34406093  0.80970376  0.24508731     0.41200
H1283       H  0.47524902  0.82389544  0.22458996     0.40800
H1284       H  0.47611320  0.78927711  0.22627562     0.35700
C1285       C  0.40368422  0.86917401  0.38746550    -0.26000
C1286       C  0.39527647  0.87552757  0.36273363    -0.14100
C1287       C  0.36702416  0.88073273  0.35848674     0.36500
C1288       C  0.34838069  0.87931121  0.37858623    -0.25500
C1289       C  0.35706768  0.87428324  0.40333733    -0.14700
C1290       C  0.38504056  0.86908947  0.40784638     0.37600
N1291       N  0.39452399  0.86408762  0.43310616    -0.89000
H1292       H  0.42508498  0.86509073  0.39112411     0.18700
H1293       H  0.32698209  0.88358173  0.37497798     0.18700
N1294       N  0.35647811  0.88810576  0.33421177    -0.88000
H1295       H  0.41557622  0.86091490  0.43325458     0.36100
H1296       H  0.38552097  0.84562012  0.43937588     0.41200
H1297       H  0.36133042  0.87243942  0.32127441     0.40800
H1298       H  0.36538276  0.90670152  0.32853435     0.35700
C1299       C  0.49396859  0.98104231  0.32572720    -0.26000
C1300       C  0.48475472  0.96957355  0.30283744    -0.14100
C1301       C  0.99175093  0.98212564  0.28025645     0.36500
C1302       C  0.00452123  0.00826075  0.28041374    -0.25500
C1303       C  0.00752789  0.52213518  0.30399161    -0.14700
C1304       C  0.50186223  0.50962963  0.32571985     0.37600
N1305       N  0.50753486  0.52175626  0.34985768    -0.89000
H1306       H  0.49194012  0.96943605  0.34311028     0.18700
H1307       H  0.00627279  0.01956053  0.26283980     0.18700
N1308       N  0.98134316  0.97125166  0.25701323    -0.88000
H1309       H  0.52017363  0.50829758  0.35984549     0.36100
H1310       H  0.48902146  0.52356368  0.35974582     0.41200
H1311       H  0.99748835  0.97006041  0.24406799     0.40800
H1312       H  0.96693795  0.98524041  0.25001387     0.35700
O1313       O  0.96412345  0.42723672  0.28234740    -0.57500
C1314       C  0.93279340  0.34910758  0.26276064     0.75100
O1315       O  0.99271174  0.34773809  0.31570114    -0.58700
C1316       C  0.97241990  0.43963616  0.30207315     0.75100
C1317       C  0.91470532  0.37788722  0.34475854     0.77500
Cd1318     Cd  0.95592821  0.38187874  0.30409310     1.37500
O1319       O  0.92469596  0.37370842  0.26668832    -0.57500
O1320       O  0.90944036  0.38611285  0.32266723    -0.56300
C1321       C  0.50968452  0.36031683  0.30009329     0.77400
O1322       O  0.93948311  0.37111213  0.34845590    -0.58700
O1323       O  0.95165189  0.34061401  0.27704254    -0.57100
O1324       O  0.97096406  0.42593911  0.32238084    -0.57100
O1325       O  0.00445480  0.38263020  0.29305963    -0.56300
O1326       O  0.52991695  0.06319505  0.28513792    -0.57500
C1327       C  0.56054843  0.14021678  0.26496455     0.75100
O1328       O  0.49996993  0.14350779  0.31509077    -0.58700
C1329       C  0.52053369  0.05154705  0.30481677     0.75100
C1330       C  0.58069678  0.11161316  0.34374071     0.77500
Cd1331     Cd  0.53707050  0.10883725  0.30562659     1.37500
O1332       O  0.56546561  0.11451179  0.26681111    -0.57500
O1333       O  0.58441451  0.10436191  0.32102892    -0.56300
C1334       C  0.98681822  0.13039002  0.29762799     0.77400
O1335       O  0.55626287  0.11834950  0.34946161    -0.58700
O1336       O  0.54449305  0.15059812  0.28115562    -0.57100
O1337       O  0.52038892  0.06601767  0.32481733    -0.57100
O1338       O  0.49007857  0.10947113  0.29049786    -0.56300
O1339       O  0.71869974  0.05761040  0.47611057    -0.57500
C1340       C  0.69092200  0.13918014  0.49309774     0.75100
O1341       O  0.75356510  0.13386449  0.44449601    -0.58700
C1342       C  0.73123474  0.04614553  0.45779775     0.75100
C1343       C  0.67034779  0.10590464  0.41704323     0.77500
Cd1344     Cd  0.71391749  0.10314033  0.45522758     1.37500
O1345       O  0.68626212  0.11332785  0.49379954    -0.57500
O1346       O  0.66681845  0.09685669  0.43921993    -0.56300
C1347       C  0.76825529  0.12471131  0.46247954     0.77400
O1348       O  0.69473120  0.11310412  0.41166027    -0.58700
O1349       O  0.70617042  0.14770108  0.47545141    -0.57100
O1350       O  0.73379906  0.06052716  0.43792789    -0.57100
O1351       O  0.75854525  0.10483134  0.47506731    -0.56300
O1352       O  0.78894343  0.42750424  0.48397390    -0.57500
C1353       C  0.81382360  0.34437743  0.50452417     0.75100
O1354       O  0.75327368  0.35013544  0.45223668    -0.58700
C1355       C  0.77943277  0.43846445  0.46403200     0.75100
C1356       C  0.83309127  0.37482542  0.42567927     0.77500
Cd1357     Cd  0.79222029  0.38005522  0.46544231     1.37500
O1358       O  0.82037706  0.36981867  0.50391270    -0.57500
O1359       O  0.83935446  0.38082332  0.44821279    -0.56300
C1360       C  0.73678457  0.36044675  0.46833677     0.77400
O1361       O  0.80790496  0.37039793  0.42152906    -0.58700
O1362       O  0.79681224  0.33641706  0.48811077    -0.57100
O1363       O  0.77731115  0.42264123  0.44506034    -0.57100
O1364       O  0.74578727  0.38014854  0.48170141    -0.56300
O1365       O  0.61227507  0.48514643  0.73507070    -0.57500
C1366       C  0.61347572  0.40505970  0.66910943     0.75100
O1367       O  0.65096315  0.43481118  0.73394069    -0.58700
C1368       C  0.63001731  0.49603348  0.72076956     0.75100
C1369       C  0.55157542  0.45905242  0.71343909     0.77500
Cd1370     Cd  0.60837920  0.44202686  0.71201136     1.37500
O1371       O  0.62748456  0.42713790  0.66998526    -0.57500
O1372       O  0.56758626  0.46388542  0.69511002    -0.56300
C1373       C  0.64370162  0.41455810  0.74729595     0.77400
O1374       O  0.56145927  0.44471033  0.73134482    -0.58700
O1375       O  0.59730467  0.40092607  0.68739020    -0.57100
O1376       O  0.63665675  0.48269270  0.70093370    -0.57100
O1377       O  0.61894610  0.40689871  0.74541651    -0.56300
O1378       O  0.85222674  0.49604943  0.70509633    -0.57500
C1379       C  0.88185468  0.06934140  0.67430419     0.75100
O1380       O  0.88204165  0.05740543  0.75231580    -0.58700
C1381       C  0.86301498  0.47804379  0.71939327     0.75100
C1382       C  0.94518075  0.01061464  0.71410289     0.77500
Cd1383     Cd  0.88815104  0.02713735  0.71366491     1.37500
O1384       O  0.87379482  0.04470277  0.67042790    -0.57500
O1385       O  0.93129870  0.01228093  0.69399665    -0.56300
C1386       C  0.85743455  0.05011817  0.75604178     0.77400
O1387       O  0.93321865  0.01850584  0.73419716    -0.58700
O1388       O  0.89287969  0.07362436  0.69551560    -0.57100
O1389       O  0.88942383  0.97797556  0.72410995    -0.57100
O1390       O  0.84803150  0.03210590  0.74111450    -0.56300
O1391       O  0.85379677  0.23339071  0.56739159    -0.57500
C1392       C  0.88122489  0.15610581  0.59786038     0.75100
O1393       O  0.88069553  0.16288778  0.52225302    -0.58700
C1394       C  0.86455862  0.25144245  0.55305712     0.75100
C1395       C  0.94594961  0.21072038  0.55529954     0.77500
Cd1396     Cd  0.88846639  0.19678641  0.55769554     1.37500
O1397       O  0.87748160  0.18169758  0.60236877    -0.57500
O1398       O  0.93268544  0.20987093  0.57585369    -0.56300
C1399       C  0.85705622  0.17226600  0.51735185     0.77400
O1400       O  0.93302993  0.20311460  0.53571152    -0.58700
O1401       O  0.88804836  0.15011393  0.57547256    -0.57100
O1402       O  0.88748618  0.24519335  0.54351985    -0.57100
O1403       O  0.84932067  0.19281239  0.53027329    -0.56300
O1404       O  0.64434355  0.24594274  0.55765246    -0.57500
C1405       C  0.61403459  0.32300487  0.58913399     0.75100
O1406       O  0.61753130  0.31627933  0.51239776    -0.58700
C1407       C  0.63567816  0.22987623  0.54036565     0.75100
C1408       C  0.55503486  0.26207283  0.54988767     0.77500
Cd1409     Cd  0.61042667  0.28294556  0.54835553     1.37500
O1410       O  0.62643942  0.29997262  0.59061238    -0.57500
O1411       O  0.57132017  0.26011575  0.56838429    -0.56300
C1412       C  0.64261017  0.30973188  0.51024029     0.77400
O1413       O  0.56385313  0.27522802  0.53075450    -0.58700
O1414       O  0.60031856  0.32717197  0.56928522    -0.57100
O1415       O  0.61488920  0.23789881  0.52821277    -0.57100
O1416       O  0.65135750  0.29111051  0.52473475    -0.56300
O1417       O  0.97178373  0.31442485  0.98368392    -0.57500
C1418       C  0.93567366  0.39059669  0.00204660     0.75100
O1419       O  0.99432643  0.39427503  0.94895042    -0.58700
C1420       C  0.97765554  0.30069089  0.96393312     0.75100
C1421       C  0.91810335  0.35951481  0.92142849     0.77500
Cd1422     Cd  0.95952420  0.35800102  0.96135454     1.37500
O1423       O  0.93135818  0.36466543  0.00145000    -0.57500
O1424       O  0.91225616  0.35556614  0.94444853    -0.56300
C1425       C  0.51022706  0.38381174  0.96297862     0.77400
O1426       O  0.94330291  0.36320433  0.91663593    -0.58700
O1427       O  0.95039070  0.40018916  0.98448635    -0.57100
O1428       O  0.97329273  0.31293382  0.94321341    -0.57100
O1429       O  0.00738882  0.36108918  0.97295400    -0.56300
O1430       O  0.53098582  0.17793572  0.98401586    -0.57500
C1431       C  0.56119915  0.10241211  0.00679338     0.75100
O1432       O  0.50650742  0.09507477  0.95172142    -0.58700
C1433       C  0.52440306  0.19037264  0.96384376     0.75100
C1434       C  0.58393411  0.12561856  0.92568712     0.77500
Cd1435     Cd  0.54007411  0.13232743  0.96345525     1.37500
O1436       O  0.56979400  0.12658794  0.00201309    -0.57500
O1437       O  0.58743319  0.13798307  0.94650173    -0.56300
C1438       C  0.98536907  0.10683492  0.96858995     0.77400
O1439       O  0.55996858  0.11642676  0.92186266    -0.58700
O1440       O  0.54231143  0.09358397  0.99277382    -0.57100
O1441       O  0.52609483  0.17628803  0.94368180    -0.57100
O1442       O  0.49033383  0.13033655  0.97154905    -0.56300
O1443       O  0.79105566  0.30046993  0.78684835    -0.57500
C1444       C  0.81250740  0.38653571  0.76919934     0.75100
O1445       O  0.74964079  0.37490739  0.81478144    -0.58700
C1446       C  0.77828139  0.29006358  0.80551916     0.75100
C1447       C  0.83210818  0.35434597  0.84497387     0.77500
Cd1448     Cd  0.79153300  0.34801294  0.80516751     1.37500
O1449       O  0.81790888  0.36087252  0.76691559    -0.57500
O1450       O  0.83805873  0.34641538  0.82279045    -0.56300
C1451       C  0.73703291  0.36626314  0.79527574     0.77400
O1452       O  0.80692789  0.35932646  0.84908041    -0.58700
O1453       O  0.79781802  0.39367678  0.78781056    -0.57100
O1454       O  0.77348069  0.30614342  0.82395082    -0.57100
O1455       O  0.74897814  0.34808403  0.78201269    -0.56300
O1456       O  0.71694445  0.16899999  0.78854404    -0.57500
C1457       C  0.68889410  0.08702472  0.77132589     0.75100
O1458       O  0.75113241  0.09097123  0.82222698    -0.58700
C1459       C  0.73098489  0.17965320  0.80623846     0.75100
C1460       C  0.67082655  0.12060475  0.84956417     0.77500
Cd1461     Cd  0.71269614  0.12256826  0.80952423     1.37500
O1462       O  0.68294426  0.11258733  0.77209616    -0.57500
O1463       O  0.66707396  0.13085186  0.82792298    -0.56300
C1464       C  0.76729757  0.10052928  0.80549172     0.77400
O1465       O  0.69476900  0.11134656  0.85356888    -0.58700
O1466       O  0.70646951  0.07879590  0.78704039    -0.57100
O1467       O  0.73473450  0.16452620  0.82542244    -0.57100
O1468       O  0.75825827  0.12014669  0.79216352    -0.56300
O1469       O  0.89410469  0.50123302  0.06384474    -0.57500
C1470       C  0.85982390  0.07305335  0.09607909     0.75100
O1471       O  0.86791982  0.06260549  0.01772637    -0.58700
C1472       C  0.88350089  0.48079802  0.05238504     0.75100
C1473       C  0.80106879  0.01586672  0.05430255     0.77500
Cd1474     Cd  0.85798031  0.03237100  0.05547437     1.37500
O1475       O  0.86448632  0.04764219  0.10029399    -0.57500
O1476       O  0.81580627  0.01415894  0.07383819    -0.56300
C1477       C  0.89311536  0.05610801  0.01680376     0.77400
O1478       O  0.81234224  0.02664508  0.03503303    -0.58700
O1479       O  0.85479595  0.07927556  0.07335718    -0.57100
O1480       O  0.86163832  0.98590180  0.03908306    -0.57100
O1481       O  0.90114874  0.03864128  0.03285326    -0.56300
O1482       O  0.60376011  0.49459640  0.07449249    -0.57500
C1483       C  0.63198737  0.41236169  0.09739142     0.75100
O1484       O  0.62138966  0.42899044  0.01927278    -0.58700
C1485       C  0.61044143  0.51020969  0.05618816     0.75100
C1486       C  0.68946652  0.47026441  0.05543518     0.77500
Cd1487     Cd  0.63236202  0.45491704  0.05863989     1.37500
O1488       O  0.62480437  0.43703564  0.10248333    -0.57500
O1489       O  0.67533435  0.47175562  0.07544285    -0.56300
C1490       C  0.59579534  0.43308159  0.02102414     0.77400
O1491       O  0.67750387  0.45996105  0.03631673    -0.58700
O1492       O  0.63870044  0.40768359  0.07467522    -0.57100
O1493       O  0.62780519  0.50058830  0.04075751    -0.57100
O1494       O  0.58755869  0.44627822  0.04026144    -0.56300
O1495       O  0.88933817  0.24159210  0.19760047    -0.57500
C1496       C  0.85933528  0.16104626  0.17214303     0.75100
O1497       O  0.86731219  0.17198916  0.24987688    -0.58700
C1498       C  0.88008369  0.25933345  0.21325411     0.75100
C1499       C  0.80181179  0.22154119  0.21564334     0.77500
Cd1500     Cd  0.85808350  0.20340599  0.21234442     1.37500
O1501       O  0.86978731  0.18483534  0.16888429    -0.57500
O1502       O  0.81556232  0.22209902  0.19534116    -0.56300
C1503       C  0.89225111  0.17892931  0.25179049     0.77400
O1504       O  0.81366589  0.21079531  0.23454390    -0.58700
O1505       O  0.84825776  0.15723510  0.19347173    -0.57100
O1506       O  0.86010536  0.25166584  0.22671276    -0.57100
O1507       O  0.90037701  0.19726639  0.23658468    -0.56300
O1508       O  0.60295658  0.24728134  0.19996583    -0.57500
C1509       C  0.63439684  0.32381552  0.17195098     0.75100
O1510       O  0.62562159  0.31575883  0.24937826    -0.58700
C1511       C  0.61213216  0.23011080  0.21599951     0.75100
C1512       C  0.69225958  0.26831670  0.21629909     0.77500
Cd1513     Cd  0.63556082  0.28399699  0.21293892     1.37500
O1514       O  0.62933291  0.29847303  0.16755591    -0.57500
O1515       O  0.67921184  0.26972179  0.19576014    -0.56300
C1516       C  0.60058768  0.30887622  0.25076214     0.77400
O1517       O  0.67924247  0.27534333  0.23610193    -0.58700
O1518       O  0.63955964  0.32990525  0.19470078    -0.57100
O1519       O  0.63297810  0.23744601  0.22837720    -0.57100
O1520       O  0.59259948  0.29060643  0.23537433    -0.56300
C1521       C  0.76363464  0.24710673  0.19527065    -0.26000
C1522       C  0.77373137  0.23361260  0.21681344    -0.14100
C1523       C  0.75721163  0.23278508  0.23880924     0.36500
C1524       C  0.73118609  0.24543719  0.23864972    -0.25500
C1525       C  0.72093242  0.25814909  0.21679898    -0.14700
C1526       C  0.73752894  0.25917896  0.19494035     0.37600
N1527       N  0.72785254  0.27244052  0.17236718    -0.89000
H1528       H  0.77616027  0.24824916  0.17840239     0.18700
H1529       H  0.71841480  0.24439320  0.25537427     0.18700
N1530       N  0.76657671  0.21880928  0.26109451    -0.88000
H1531       H  0.74230618  0.27100053  0.15788957     0.36100
H1532       H  0.72551213  0.29353941  0.17640289     0.41200
H1533       H  0.76766065  0.19766516  0.25680531     0.40800
H1534       H  0.75233689  0.22077382  0.27570518     0.35700
C1535       C  0.63228127  0.36206424  0.10860612    -0.26000
C1536       C  0.63265909  0.38987596  0.11662090    -0.14100
C1537       C  0.63416950  0.39550175  0.14272000     0.36500
C1538       C  0.63515999  0.37361284  0.16006541    -0.25500
C1539       C  0.63408637  0.34580109  0.15219509    -0.14700
C1540       C  0.63265618  0.34009632  0.12604893     0.37600
N1541       N  0.63158916  0.31217236  0.11700147    -0.89000
H1542       H  0.63124755  0.35725325  0.08862844     0.18700
H1543       H  0.63640740  0.37860951  0.17999073     0.18700
N1544       N  0.63502156  0.42340137  0.15184121    -0.88000
H1545       H  0.64820042  0.30903210  0.10485217     0.36100
H1546       H  0.61367856  0.30986659  0.10645072     0.41200
H1547       H  0.65301788  0.42592436  0.16222440     0.40800
H1548       H  0.61849342  0.42627409  0.16414052     0.35700
C1549       C  0.85405629  0.11110524  0.15955339    -0.26000
C1550       C  0.85999882  0.13858094  0.15250603    -0.14100
C1551       C  0.86654927  0.14384842  0.12698215     0.36500
C1552       C  0.86606820  0.12222290  0.10914644    -0.25500
C1553       C  0.86038280  0.09479671  0.11617808    -0.14700
C1554       C  0.85481505  0.08911723  0.14188170     0.37600
N1555       N  0.84944981  0.06126813  0.14997312    -0.89000
H1556       H  0.84929696  0.10661244  0.17910941     0.18700
H1557       H  0.87069003  0.12695260  0.08959631     0.18700
N1558       N  0.87370479  0.17114171  0.11891200    -0.88000
H1559       H  0.84443923  0.06088320  0.16917735     0.36100
H1560       H  0.86769986  0.05014223  0.14818811     0.41200
H1561       H  0.86004207  0.17707784  0.10477930     0.40800
H1562       H  0.89329064  0.17029683  0.11095004     0.35700
C1563       C  0.73044915  0.48705251  0.03118415    -0.26000
C1564       C  0.71802588  0.48113951  0.05453897    -0.14100
C1565       C  0.73716853  0.97778770  0.07588443     0.36500
C1566       C  0.76331534  0.98979089  0.07536422    -0.25500
C1567       C  0.77256287  0.00490614  0.05429532    -0.14700
C1568       C  0.75632705  0.50001192  0.02979713     0.37600
N1569       N  0.76760519  0.50735450  0.00564266    -0.89000
H1570       H  0.71949142  0.48251855  0.01390916     0.18700
H1571       H  0.77665566  0.98665198  0.09141006     0.18700
N1572       N  0.72926161  0.96100059  0.09693307    -0.88000
H1573       H  0.76806248  0.52895053  0.00476786     0.36100
H1574       H  0.75472262  0.50086289  0.99104842     0.41200
H1575       H  0.73062587  0.97301043  0.11331233     0.40800
H1576       H  0.74333127  0.94476305  0.09843696     0.35700
C1577       C  0.76252515  0.24753756  0.78268857    -0.26000
C1578       C  0.76819453  0.26101586  0.80564115    -0.14100
C1579       C  0.76210107  0.24735452  0.82853187     0.36500
C1580       C  0.74943961  0.22127154  0.82796856    -0.25500
C1581       C  0.74294027  0.20803718  0.80509905    -0.14700
C1582       C  0.74996444  0.22123309  0.78212472     0.37600
N1583       N  0.74515174  0.20767735  0.75835934    -0.89000
H1584       H  0.76728859  0.25785678  0.76507617     0.18700
H1585       H  0.74469316  0.21111800  0.84566092     0.18700
N1586       N  0.76903578  0.25985589  0.85234950    -0.88000
H1587       H  0.75328914  0.21931415  0.74348481     0.36100
H1588       H  0.72404044  0.20716177  0.75553622     0.41200
H1589       H  0.79036027  0.26123202  0.85316125     0.40800
H1590       H  0.76303318  0.24723011  0.86736868     0.35700
C1591       C  0.93711206  0.10953265  0.98366750    -0.26000
C1592       C  0.95889930  0.09312516  0.97475497    -0.14100
C1593       C  0.95658349  0.06402988  0.97614545     0.36500
C1594       C  0.93392680  0.05225149  0.98868164    -0.25500
C1595       C  0.91306018  0.06882482  0.99907323    -0.14700
C1596       C  0.91410746  0.09770549  0.99554997     0.37600
N1597       N  0.89268915  0.11508418  0.00538434    -0.89000
H1598       H  0.93868267  0.13185125  0.98248467     0.18700
H1599       H  0.93303619  0.03002717  0.99122315     0.18700
N1600       N  0.97808103  0.04661467  0.96652963    -0.88000
H1601       H  0.89645162  0.13581982  0.00100099     0.36100
H1602       H  0.89308118  0.11365102  0.02507680     0.41200
H1603       H  0.48912997  0.04373002  0.95548557     0.40800
H1604       H  0.97372700  0.02579974  0.97001733     0.35700
C1605       C  0.55699425  0.06243399  0.03583404    -0.26000
C1606       C  0.57321155  0.08404762  0.02630233    -0.14100
C1607       C  0.60139694  0.08451808  0.03205118     0.36500
C1608       C  0.61310521  0.06189821  0.04484199    -0.25500
C1609       C  0.59724145  0.03897940  0.05208238    -0.14700
C1610       C  0.56865167  0.03992765  0.04867716     0.37600
N1611       N  0.55190462  0.01681941  0.05592023    -0.89000
H1612       H  0.53528662  0.06219018  0.03176996     0.18700
H1613       H  0.63505635  0.06122091  0.04752516     0.18700
N1614       N  0.61841371  0.10680225  0.02334358    -0.88000
H1615       H  0.53159848  0.01995598  0.05048949     0.36100
H1616       H  0.55943904  0.52444203  0.08749094     0.41200
H1617       H  0.61938155  0.10557035  0.00363082     0.40800
H1618       H  0.63843291  0.10433439  0.02981039     0.35700
C1619       C  0.65494876  0.11975455  0.89488739    -0.26000
C1620       C  0.64840245  0.12007997  0.86901256    -0.14100
C1621       C  0.62028914  0.12033195  0.86222191     0.36500
C1622       C  0.59995160  0.12173642  0.88093872    -0.25500
C1623       C  0.60648314  0.12263095  0.90668524    -0.14700
C1624       C  0.63436542  0.12089131  0.91375031     0.37600
N1625       N  0.64169684  0.11987963  0.94001090    -0.89000
H1626       H  0.67623709  0.11896757  0.90044946     0.18700
H1627       H  0.57871481  0.12250867  0.87519065     0.18700
N1628       N  0.61150453  0.11829839  0.83649821    -0.88000
H1629       H  0.66290655  0.11838717  0.94202869     0.36100
H1630       H  0.63349513  0.10167891  0.94751138     0.41200
H1631       H  0.62027489  0.10064275  0.82838292     0.40800
H1632       H  0.61788645  0.13584814  0.82666367     0.35700
C1633       C  0.93893892  0.43396291  0.02683190    -0.26000
C1634       C  0.92415165  0.40979072  0.02134458    -0.14100
C1635       C  0.89747729  0.40704863  0.03119943     0.36500
C1636       C  0.88485468  0.42992277  0.04308813    -0.25500
C1637       C  0.89893671  0.45507969  0.04638052    -0.14700
C1638       C  0.92674879  0.45640084  0.03939272     0.37600
N1639       N  0.94217121  0.48125325  0.04313574    -0.89000
H1640       H  0.95975852  0.43612106  0.02003256     0.18700
H1641       H  0.86360583  0.42839221  0.04877708     0.18700
N1642       N  0.88268487  0.38172370  0.02813059    -0.88000
H1643       H  0.94892315  0.48820240  0.02552257     0.36100
H1644       H  0.95939778  0.47633614  0.05392180     0.41200
H1645       H  0.86463920  0.38602387  0.01828821     0.40800
H1646       H  0.87726530  0.37464423  0.04607144     0.35700
C1647       C  0.53180205  0.42555260  0.98136234    -0.26000
C1648       C  0.53496697  0.39862161  0.97180671    -0.14100
C1649       C  0.56014205  0.38487681  0.97529025     0.36500
C1650       C  0.58047435  0.39698348  0.99043735    -0.25500
C1651       C  0.57616009  0.42277600  0.00197251    -0.14700
C1652       C  0.55222966  0.43786316  0.99625697     0.37600
N1653       N  0.54854071  0.46546115  0.00591596    -0.89000
H1654       H  0.51268818  0.43642939  0.97849924     0.18700
H1655       H  0.59916172  0.38562515  0.99406586     0.18700
N1656       N  0.56502607  0.35852627  0.96370051    -0.88000
H1657       H  0.52995920  0.47359422  0.00010120     0.36100
H1658       H  0.56384503  0.47793541  0.99778399     0.41200
H1659       H  0.56946504  0.34428259  0.97792488     0.40800
H1660       H  0.58234926  0.36033443  0.95217971     0.35700
C1661       C  0.86871863  0.36173458  0.90861855    -0.26000
C1662       C  0.89641656  0.35955117  0.90148493    -0.14100
C1663       C  0.90267174  0.35684960  0.87553702     0.36500
C1664       C  0.88148953  0.35568657  0.85758648    -0.25500
C1665       C  0.85377143  0.35726146  0.86475616    -0.14700
C1666       C  0.84753295  0.36089509  0.89061590     0.37600
N1667       N  0.81972846  0.36352147  0.89883400    -0.89000
H1668       H  0.86335395  0.36412615  0.92837459     0.18700
H1669       H  0.88689812  0.35327463  0.83784176     0.18700
N1670       N  0.93048288  0.35463825  0.86723629    -0.88000
H1671       H  0.81765573  0.38251121  0.90813354     0.36100
H1672       H  0.81572917  0.34781190  0.91187338     0.41200
H1673       H  0.93435469  0.37081639  0.85466150     0.40800
H1674       H  0.93267452  0.33599075  0.85737652     0.35700
C1675       C  0.00770782  0.23183091  0.98678666    -0.26000
C1676       C  0.51409216  0.21939643  0.96388065    -0.14100
C1677       C  0.51569667  0.23623568  0.94215538     0.36500
C1678       C  0.50319259  0.26247102  0.94226495    -0.25500
C1679       C  0.98965856  0.27219868  0.96461044    -0.14700
C1680       C  0.99528321  0.25818096  0.98748133     0.37600
N1681       N  0.98817407  0.27048993  0.01135751    -0.89000
H1682       H  0.01154721  0.22108594  0.00435522     0.18700
H1683       H  0.50472185  0.27522489  0.92552805     0.18700
N1684       N  0.53001767  0.22669888  0.92002042    -0.88000
H1685       H  0.99453193  0.25788494  0.02631892     0.36100
H1686       H  0.96688959  0.27127130  0.01238767     0.41200
H1687       H  0.55066801  0.22473744  0.92475387     0.40800
H1688       H  0.52899470  0.24138436  0.90558798     0.35700
C1689       C  0.48683607  0.22960191  0.53080338    -0.26000
C1690       C  0.97450889  0.22147506  0.55408907    -0.14100
C1691       C  0.99006281  0.22637078  0.57609863     0.36500
C1692       C  0.01581152  0.23925705  0.57430055    -0.25500
C1693       C  0.52739636  0.24914830  0.55086855    -0.14700
C1694       C  0.51259913  0.24240773  0.52883514     0.37600
N1695       N  0.52377681  0.24806470  0.50436654    -0.89000
H1696       H  0.47565905  0.22496275  0.51366794     0.18700
H1697       H  0.02721494  0.24296931  0.59149198     0.18700
N1698       N  0.97998578  0.21807440  0.60036153    -0.88000
H1699       H  0.51008300  0.26087243  0.49477699     0.36100
H1700       H  0.52517758  0.22936863  0.49445710     0.41200
H1701       H  0.97906110  0.23551377  0.61195464     0.40800
H1702       H  0.99407979  0.20420577  0.60820970     0.35700
C1703       C  0.83772473  0.09188827  0.77667719    -0.26000
C1704       C  0.83945610  0.06297246  0.77538580    -0.14100
C1705       C  0.82032255  0.04693639  0.78891133     0.36500
C1706       C  0.79836952  0.05985778  0.80148901    -0.25500
C1707       C  0.79464176  0.08857753  0.79993456    -0.14700
C1708       C  0.81529791  0.10488664  0.78855175     0.37600
N1709       N  0.81255749  0.13449730  0.78779575    -0.89000
H1710       H  0.85250722  0.10428857  0.76646535     0.18700
H1711       H  0.78290684  0.04713873  0.81043706     0.18700
N1712       N  0.82247587  0.01738852  0.78892846    -0.88000
H1713       H  0.82920574  0.14342533  0.77844636     0.36100
H1714       H  0.81306947  0.14174330  0.80640733     0.41200
H1715       H  0.80443948  0.00926058  0.78141306     0.40800
H1716       H  0.82396570  0.01086115  0.80769274     0.35700
C1717       C  0.85099499  0.40570434  0.74427550    -0.26000
C1718       C  0.82361313  0.40764695  0.75189068    -0.14100
C1719       C  0.80822995  0.43134953  0.74537044     0.36500
C1720       C  0.82102204  0.45314594  0.73234044    -0.25500
C1721       C  0.84900486  0.45207783  0.72647545    -0.14700
C1722       C  0.86391081  0.42787318  0.73204454     0.37600
N1723       N  0.89240599  0.42604583  0.72596961    -0.89000
H1724       H  0.86294138  0.38765643  0.74930770     0.18700
H1725       H  0.80958492  0.47185274  0.72840492     0.18700
N1726       N  0.77999366  0.43358484  0.75278901    -0.88000
H1727       H  0.89527090  0.40880025  0.71429182     0.36100
H1728       H  0.90316264  0.42263775  0.74271817     0.41200
H1729       H  0.76916506  0.41820809  0.74323929     0.40800
H1730       H  0.77179157  0.45257402  0.74702466     0.35700
C1731       C  0.88185264  0.14090963  0.64313661    -0.26000
C1732       C  0.87858508  0.13413576  0.61754128    -0.14100
C1733       C  0.87442621  0.10606705  0.61093696     0.36500
C1734       C  0.87437126  0.08546066  0.62971586    -0.25500
C1735       C  0.87910687  0.09202030  0.65520170    -0.14700
C1736       C  0.88234820  0.12027900  0.66196520     0.37600
N1737       N  0.88651024  0.12803069  0.68790733    -0.89000
H1738       H  0.88493312  0.16234368  0.64843486     0.18700
H1739       H  0.87155163  0.06407482  0.62412348     0.18700
N1740       N  0.87049788  0.09826208  0.58507520    -0.88000
H1741       H  0.86856363  0.12333286  0.69780392     0.36100
H1742       H  0.88934266  0.14937438  0.68959946     0.41200
H1743       H  0.85166417  0.08818658  0.58359968     0.40800
H1744       H  0.88585782  0.08418805  0.58010285     0.35700
C1745       C  0.69034663  0.04399018  0.74548866    -0.26000
C1746       C  0.67540776  0.06704010  0.75410883    -0.14100
C1747       C  0.64717440  0.06874810  0.74876135     0.36500
C1748       C  0.63416711  0.04644079  0.73659465    -0.25500
C1749       C  0.64899919  0.02305306  0.72886391    -0.05100
C1750       C  0.67752205  0.02226699  0.73238276     0.37600
N1751       N  0.68890103  0.50138697  0.72096919    -0.89000
H1752       H  0.71202279  0.04265216  0.74950941     0.18700
H1753       H  0.61221003  0.04685274  0.73389211     0.18700
N1754       N  0.63153388  0.09237629  0.75683170    -0.88000
H1755       H  0.70943585  0.50477716  0.72548752     0.36100
H1756       H  0.68765533  0.50222924  0.70128116     0.41200
H1757       H  0.63115431  0.09241091  0.77658187     0.40800
H1758       H  0.61122932  0.09060456  0.75093590     0.35700
C1759       C  0.68153364  0.41729699  0.77795127    -0.26000
C1760       C  0.66398350  0.40071298  0.76346410    -0.14100
C1761       C  0.66947517  0.37220930  0.76093459     0.36500
C1762       C  0.69254724  0.36092089  0.77299166    -0.25500
C1763       C  0.71046416  0.37769759  0.78704524    -0.14700
C1764       C  0.70481170  0.40613363  0.78947449     0.37600
N1765       N  0.72384085  0.42416583  0.80178119    -0.89000
H1766       H  0.67797745  0.43940361  0.77915973     0.18700
H1767       H  0.69728397  0.33918446  0.77043859     0.18700
N1768       N  0.65313654  0.35544137  0.74435279    -0.88000
H1769       H  0.71348967  0.43462740  0.81623477     0.36100
H1770       H  0.73049923  0.43881079  0.78863382     0.41200
H1771       H  0.63363765  0.35389658  0.75232051     0.40800
H1772       H  0.66093786  0.33531229  0.74331991     0.35700
C1773       C  0.59018894  0.37341611  0.63947287    -0.26000
C1774       C  0.61482484  0.38503821  0.64784827    -0.14100
C1775       C  0.63972838  0.37604188  0.63691100     0.36500
C1776       C  0.63929851  0.35508786  0.61820125    -0.25500
C1777       C  0.61445424  0.34384795  0.60969885    -0.14700
C1778       C  0.58969159  0.35339637  0.62023326     0.37600
N1779       N  0.56405651  0.34255260  0.61141148    -0.89000
H1780       H  0.57109653  0.38022512  0.64788286     0.18700
H1781       H  0.65829164  0.34790406  0.60986760     0.18700
N1782       N  0.66527638  0.38737972  0.64540408    -0.88000
H1783       H  0.54770716  0.35186529  0.62096267     0.36100
H1784       H  0.56346484  0.32151827  0.61591196     0.41200
H1785       H  0.66583394  0.40813846  0.63997080     0.40800
H1786       H  0.68164325  0.37770816  0.63617201     0.35700
C1787       C  0.51517218  0.98846804  0.69353661    -0.26000
C1788       C  0.52327689  0.47073195  0.71365442    -0.14100
C1789       C  0.00638806  0.47449279  0.73553656     0.36500
C1790       C  0.98094550  0.48836937  0.73607412    -0.25500
C1791       C  0.97346332  0.99899329  0.71412716    -0.14700
C1792       C  0.48918239  0.00084574  0.69387944     0.37600
N1793       N  0.47992952  0.01649456  0.67247495    -0.89000
H1794       H  0.52815759  0.99139454  0.67714982     0.18700
H1795       H  0.96774098  0.48623038  0.75241799     0.18700
N1796       N  0.01486902  0.45833042  0.75687275    -0.88000
H1797       H  0.49451709  0.01615754  0.65799172     0.36100
H1798       H  0.97813857  0.03126397  0.67098862     0.41200
H1799       H  0.49874142  0.43983925  0.76060655     0.40800
H1800       H  0.00043232  0.45963238  0.77143133     0.35700
C1801       C  0.86620588  0.30087771  0.53927931    -0.26000
C1802       C  0.85050302  0.27757700  0.54584726    -0.14100
C1803       C  0.82194492  0.27828518  0.54187891     0.36500
C1804       C  0.81009295  0.30145267  0.53011246    -0.25500
C1805       C  0.82602250  0.32405787  0.52227359    -0.14700
C1806       C  0.85418813  0.32432600  0.52800002     0.37600
N1807       N  0.87080167  0.34755261  0.52085344    -0.89000
H1808       H  0.88811579  0.30042713  0.54224725     0.18700
H1809       H  0.78843529  0.30124691  0.52582762     0.18700
N1810       N  0.80528662  0.25478058  0.54819183    -0.88000
H1811       H  0.89129661  0.34398347  0.52545704     0.36100
H1812       H  0.86451850  0.36443249  0.53178467     0.41200
H1813       H  0.81081431  0.23859454  0.53607066     0.40800
H1814       H  0.78466079  0.25893180  0.54465913     0.35700
C1815       C  0.70477782  0.32053228  0.46960232    -0.26000
C1816       C  0.70912787  0.34898161  0.47297801    -0.14100
C1817       C  0.68833213  0.36514389  0.48434225     0.36500
C1818       C  0.66479307  0.35229966  0.49409171    -0.25500
C1819       C  0.66191788  0.32350190  0.49297961    -0.14700
C1820       C  0.68151701  0.30768045  0.47976630     0.37600
N1821       N  0.67834732  0.27830104  0.47762038    -0.89000
H1822       H  0.72040479  0.30784401  0.46077322     0.18700
H1823       H  0.64987305  0.36462045  0.50430913     0.18700
N1824       N  0.69146579  0.39449033  0.48677817    -0.88000
H1825       H  0.69536205  0.26886620  0.48584839     0.36100
H1826       H  0.67822121  0.27317957  0.45842071     0.41200
H1827       H  0.69042762  0.39957700  0.50597314     0.40800
H1828       H  0.67498781  0.40395634  0.47771121     0.35700
C1829       C  0.67845344  0.20284560  0.53345585    -0.26000
C1830       C  0.64976040  0.20378209  0.53337882    -0.14100
C1831       C  0.63500161  0.18096422  0.52373635     0.36500
C1832       C  0.64920189  0.15870429  0.51262318    -0.25500
C1833       C  0.67775821  0.15905774  0.51055115    -0.14700
C1834       C  0.69256431  0.18082369  0.52206627     0.37600
N1835       N  0.72186474  0.18105090  0.52252781    -0.89000
H1836       H  0.68999931  0.22005764  0.54109794     0.18700
H1837       H  0.63784353  0.14189430  0.50405238     0.18700
N1838       N  0.60561890  0.18089043  0.52456061    -0.88000
H1839       H  0.72928169  0.18167490  0.50402405     0.36100
H1840       H  0.72853634  0.16272758  0.53095531     0.41200
H1841       H  0.59974999  0.18078779  0.54358158     0.40800
H1842       H  0.59790302  0.16273789  0.51655177     0.35700
C1843       C  0.81572749  0.12043612  0.47907646    -0.26000
C1844       C  0.79441905  0.13749603  0.47035806    -0.14100
C1845       C  0.79606230  0.16627657  0.47429411     0.36500
C1846       C  0.81802561  0.17718741  0.48811426    -0.25500
C1847       C  0.83835109  0.16002761  0.49836286    -0.14700
C1848       C  0.83781145  0.13140550  0.49296050     0.37600
N1849       N  0.85865137  0.11338890  0.50271033    -0.89000
H1850       H  0.81430337  0.09826555  0.47627313     0.18700
H1851       H  0.81849312  0.19919790  0.49204718     0.18700
N1852       N  0.77413450  0.18404146  0.46638503    -0.88000
H1853       H  0.85560110  0.09311699  0.49638665     0.36100
H1854       H  0.85656470  0.11294846  0.52236760     0.41200
H1855       H  0.77425914  0.18437403  0.44663248     0.40800
H1856       H  0.77753731  0.20437030  0.47232664     0.35700
C1857       C  0.76378183  0.47909004  0.43889116    -0.26000
C1858       C  0.77031069  0.46787502  0.46260678    -0.14100
C1859       C  0.76655349  0.48451091  0.48429509     0.36500
C1860       C  0.75489996  0.51107558  0.48203602    -0.25500
C1861       C  0.74316154  0.01782420  0.45981583    -0.14700
C1862       C  0.75178514  0.00291023  0.43827500     0.37600
N1863       N  0.74841690  0.01412943  0.41346227    -0.89000
H1864       H  0.76699492  0.46697095  0.42188745     0.18700
H1865       H  0.75177085  0.52335451  0.49895192     0.18700
N1866       N  0.77401266  0.47440756  0.50872180    -0.88000
H1867       H  0.73653239  0.00035358  0.40291090     0.36100
H1868       H  0.76770536  0.01534555  0.40496741     0.41200
H1869       H  0.75656606  0.47478961  0.52025844     0.40800
H1870       H  0.78836926  0.48793753  0.51641814     0.35700
C1871       C  0.61462650  0.18236907  0.23256141    -0.26000
C1872       C  0.59868881  0.20349476  0.22185512    -0.14100
C1873       C  0.56997355  0.20054732  0.22115803     0.36500
C1874       C  0.55779899  0.17792087  0.23348294    -0.25500
C1875       C  0.57375546  0.15816135  0.24606992    -0.14700
C1876       C  0.60244824  0.15954204  0.24444318     0.37600
N1877       N  0.61906764  0.13910638  0.25674876    -0.89000
H1878       H  0.63668893  0.18444547  0.23287746     0.18700
H1879       H  0.53570879  0.17664956  0.23471171     0.18700
N1880       N  0.55315866  0.22139838  0.20966630    -0.88000
H1881       H  0.63979716  0.14387626  0.25478968     0.36100
H1882       H  0.61606745  0.12033187  0.24727979     0.41200
H1883       H  0.55442735  0.23924783  0.22086261     0.40800
H1884       H  0.53266032  0.21540567  0.20984844     0.35700
C1885       C  0.93165163  0.18289030  0.28122048    -0.26000
C1886       C  0.91190223  0.16598479  0.26967335    -0.14100
C1887       C  0.91474281  0.13697821  0.27137129     0.36500
C1888       C  0.93865684  0.12569542  0.28220860    -0.25500
C1889       C  0.95951242  0.14274722  0.29192898    -0.14700
C1890       C  0.95528639  0.17158996  0.29229957     0.37600
N1891       N  0.97595601  0.18967943  0.30194897    -0.89000
H1892       H  0.92960293  0.20518761  0.28018589     0.18700
H1893       H  0.94162882  0.10347970  0.28200747     0.18700
N1894       N  0.89453752  0.11913473  0.26028925    -0.88000
H1895       H  0.96717012  0.20179661  0.31621283     0.36100
H1896       H  0.49055534  0.19071338  0.29228262     0.41200
H1897       H  0.87640932  0.12168665  0.27060686     0.40800
H1898       H  0.90018498  0.09842670  0.26229853     0.35700
C1899       C  0.59811481  0.11004464  0.38845042    -0.26000
C1900       C  0.60375093  0.11140322  0.36244889    -0.14100
C1901       C  0.63148202  0.11119248  0.35463134     0.36500
C1902       C  0.65265806  0.10970085  0.37261285    -0.25500
C1903       C  0.64708976  0.10795463  0.39860117    -0.14700
C1904       C  0.61929332  0.10812308  0.40653492     0.37600
N1905       N  0.61250947  0.10637886  0.43292411    -0.89000
H1906       H  0.57701039  0.10999351  0.39472696     0.18700
H1907       H  0.67367230  0.10952543  0.36607204     0.18700
N1908       N  0.63840622  0.11263173  0.32836303    -0.88000
H1909       H  0.59130725  0.10593739  0.43551244     0.36100
H1910       H  0.61944842  0.12449933  0.44160973     0.41200
H1911       H  0.64982785  0.09503103  0.32371686     0.40800
H1912       H  0.65081476  0.12996793  0.32559889     0.35700
C1913       C  0.55799388  0.36256262  0.28538601    -0.26000
C1914       C  0.53593595  0.34636404  0.29387825    -0.14100
C1915       C  0.53753065  0.31728746  0.29155683     0.36500
C1916       C  0.55986282  0.30537513  0.27869171    -0.25500
C1917       C  0.58085365  0.32179217  0.26850643    -0.14700
C1918       C  0.58038508  0.35061299  0.27261875     0.37600
N1919       N  0.60150745  0.36786496  0.26220682    -0.89000
H1920       H  0.55688725  0.38486853  0.28722449     0.18700
H1921       H  0.56032961  0.28319595  0.27563986     0.18700
N1922       N  0.51557326  0.30010000  0.30048209    -0.88000
H1923       H  0.59831090  0.38855511  0.26723746     0.36100
H1924       H  0.59994088  0.36688187  0.24253225     0.41200
H1925       H  0.51529538  0.30153466  0.32019772     0.40800
H1926       H  0.51934327  0.27933176  0.29617381     0.35700
C1927       C  0.89185935  0.33129975  0.23945829    -0.26000
C1928       C  0.92019350  0.33030840  0.24369751    -0.14100
C1929       C  0.93560762  0.30887678  0.23222309     0.36500
C1930       C  0.92209549  0.28727535  0.21941399    -0.25500
C1931       C  0.89348810  0.28643192  0.21811123    -0.14700
C1932       C  0.87842624  0.30954085  0.22678306     0.37600
N1933       N  0.84939908  0.31058766  0.22336384    -0.89000
H1934       H  0.87981839  0.34797386  0.24752038     0.18700
H1935       H  0.93384008  0.26985723  0.21237100     0.18700
N1936       N  0.96487624  0.30851039  0.23456740    -0.88000
H1937       H  0.84482166  0.32846302  0.21311672     0.36100
H1938       H  0.84020329  0.31241744  0.24113776     0.41200
H1939       H  0.97241792  0.32596822  0.22529559     0.40800
H1940       H  0.97314514  0.29129832  0.22523593     0.35700
C1941       C  0.90081807  0.36839199  0.38969373    -0.26000
C1942       C  0.89320995  0.37643347  0.36512744    -0.14100
C1943       C  0.86518397  0.38284590  0.36077231     0.36500
C1944       C  0.84618184  0.38157957  0.38062460    -0.25500
C1945       C  0.85394728  0.37404279  0.40510571    -0.14700
C1946       C  0.88153950  0.36687906  0.40959316     0.37600
N1947       N  0.88982121  0.35757510  0.43418308    -0.89000
H1948       H  0.92194081  0.36309741  0.39343555     0.18700
H1949       H  0.82508549  0.38708438  0.37689411     0.18700
N1950       N  0.85509068  0.39072566  0.33647556    -0.88000
H1951       H  0.91072249  0.35301355  0.43435522     0.36100
H1952       H  0.87962250  0.33898363  0.43778663     0.41200
H1953       H  0.85916771  0.37482648  0.32361388     0.40800
H1954       H  0.86493133  0.40887703  0.33077404     0.35700
C1955       C  0.98942638  0.48122214  0.32515230    -0.26000
C1956       C  0.98389120  0.46828239  0.30191867    -0.14100
C1957       C  0.48825347  0.48540034  0.27902528     0.36500
C1958       C  0.50142550  0.51134090  0.27998258    -0.25500
C1959       C  0.50931979  0.02291824  0.30434480    -0.14700
C1960       C  0.01087205  0.00530703  0.32569501     0.37600
N1961       N  0.01999657  0.01670036  0.34920900    -0.89000
H1962       H  0.98477576  0.47069173  0.34268349     0.18700
H1963       H  0.50569486  0.52203715  0.26245370     0.18700
N1964       N  0.48096868  0.47379268  0.25506336    -0.88000
H1965       H  0.03426116  0.00305958  0.35703786     0.36100
H1966       H  0.00321997  0.01782387  0.36142306     0.41200
H1967       H  0.49876002  0.47192891  0.24418029     0.40800
H1968       H  0.46791474  0.48769219  0.24599539     0.35700
O1969       O  0.96627489  0.92695630  0.28478803    -0.57500
C1970       C  0.93878338  0.84735752  0.26460449     0.75100
O1971       O  0.99651196  0.84926967  0.31992159    -0.58700
C1972       C  0.97727182  0.93854796  0.30374887     0.75100
C1973       C  0.91891349  0.87576806  0.34570041     0.77500
Cd1974     Cd  0.96000465  0.88123747  0.30561964     1.37500
O1975       O  0.93107156  0.87232399  0.26711891    -0.57500
O1976       O  0.91341573  0.88388007  0.32360318    -0.56300
C1977       C  0.51130109  0.86027530  0.29863123     0.77400
O1978       O  0.94391901  0.87032869  0.34975253    -0.58700
O1979       O  0.95625349  0.83892648  0.28033009    -0.57100
O1980       O  0.97832467  0.92417485  0.32367342    -0.57100
O1981       O  0.00630820  0.87853713  0.29048927    -0.56300
O1982       O  0.53099167  0.56323320  0.28410510    -0.57500
C1983       C  0.56165421  0.64129862  0.26360434     0.75100
O1984       O  0.50107212  0.64335510  0.31687171    -0.58700
C1985       C  0.52059709  0.55208416  0.30359071     0.75100
C1986       C  0.58182711  0.61322694  0.34243257     0.77500
Cd1987     Cd  0.53840824  0.60939646  0.30455123     1.37500
O1988       O  0.56732598  0.61577722  0.26574927    -0.57500
O1989       O  0.58560099  0.60514934  0.31996190    -0.56300
C1990       C  0.98260099  0.63193890  0.30354840     0.77400
O1991       O  0.55731276  0.61961058  0.34810053    -0.58700
O1992       O  0.54527332  0.65122049  0.27977489    -0.57100
O1993       O  0.52036800  0.56684390  0.32339109    -0.57100
O1994       O  0.49231469  0.61207736  0.28897982    -0.56300
O1995       O  0.72291473  0.56119645  0.47567683    -0.57500
C1996       C  0.69050211  0.64149730  0.49259636     0.75100
O1997       O  0.75516321  0.63512133  0.44114277    -0.58700
C1998       C  0.73424346  0.54967124  0.45675648     0.75100
C1999       C  0.67155622  0.61045929  0.41538318     0.77500
Cd2000     Cd  0.71456367  0.60630840  0.45412264     1.37500
O2001       O  0.68477804  0.61585418  0.49189040    -0.57500
O2002       O  0.66781322  0.60012795  0.43706986    -0.56300
C2003       C  0.76915383  0.62750374  0.46018573     0.77400
O2004       O  0.69594208  0.61806706  0.41057829    -0.58700
O2005       O  0.70686149  0.65013529  0.47585819    -0.57100
O2006       O  0.73411444  0.56345872  0.43643533    -0.57100
O2007       O  0.75806063  0.61035080  0.47493574    -0.56300
O2008       O  0.78820324  0.92465724  0.48579570    -0.57500
C2009       C  0.81421587  0.84324772  0.50610888     0.75100
O2010       O  0.75680463  0.84508147  0.45236252    -0.58700
C2011       C  0.77933691  0.93609540  0.46582573     0.75100
C2012       C  0.83567141  0.87224653  0.42521000     0.77500
Cd2013     Cd  0.79408072  0.87781599  0.46506320     1.37500
O2014       O  0.82285430  0.86782965  0.50322877    -0.57500
O2015       O  0.84130410  0.87797980  0.44792284    -0.56300
C2016       C  0.73856403  0.85786717  0.46500608     0.77400
O2017       O  0.81047244  0.86846212  0.42061707    -0.58700
O2018       O  0.79549327  0.83568405  0.49121691    -0.57100
O2019       O  0.77970264  0.92122388  0.44613220    -0.57100
O2020       O  0.74603955  0.87996234  0.47573008    -0.56300
O2021       O  0.61537202  0.98827737  0.73507542    -0.57500
C2022       C  0.61339549  0.90780711  0.66923914     0.75100
O2023       O  0.65275371  0.93365031  0.73133935    -0.58700
C2024       C  0.63418126  0.99789724  0.72119831     0.75100
C2025       C  0.55322938  0.96194180  0.71314098     0.77500
Cd2026     Cd  0.60973288  0.94531966  0.71181146     1.37500
O2027       O  0.62089986  0.93281596  0.66692194    -0.57500
O2028       O  0.56928360  0.96852770  0.69533442    -0.56300
C2029       C  0.64351919  0.91860079  0.74885459     0.77400
O2030       O  0.56322404  0.94654946  0.73017864    -0.58700
O2031       O  0.60415944  0.90087943  0.69064395    -0.57100
O2032       O  0.64052847  0.98406240  0.70160011    -0.57100
O2033       O  0.61778916  0.91504010  0.74953221    -0.56300
O2034       O  0.85401394  0.99062219  0.70307512    -0.57500
C2035       C  0.88271993  0.57339338  0.67512272     0.75100
O2036       O  0.87829717  0.56151781  0.75451950    -0.58700
C2037       C  0.86642614  0.97162090  0.71501294     0.75100
C2038       C  0.94371409  0.51569525  0.71552534     0.77500
Cd2039     Cd  0.88669120  0.53243002  0.71536582     1.37500
O2040       O  0.87629963  0.54825361  0.67133387    -0.57500
O2041       O  0.92939949  0.51610762  0.69563328    -0.56300
C2042       C  0.85297869  0.55560228  0.75543435     0.77400
O2043       O  0.93224856  0.52467732  0.73550678    -0.58700
O2044       O  0.89071375  0.57926358  0.69721130    -0.57100
O2045       O  0.88559872  0.48441014  0.72936472    -0.57100
O2046       O  0.84420764  0.53952400  0.73847807    -0.56300
O2047       O  0.85209059  0.72978495  0.56457415    -0.57500
C2048       C  0.88595668  0.65617071  0.59486723     0.75100
O2049       O  0.88327910  0.66272200  0.51840397    -0.58700
C2050       C  0.86418655  0.75098710  0.55595627     0.75100
C2051       C  0.94802842  0.71183884  0.54548196     0.77500
Cd2052     Cd  0.89078577  0.69700391  0.55385489     1.37500
O2053       O  0.88674782  0.68194015  0.59954675    -0.57500
O2054       O  0.93808236  0.70613003  0.56692950    -0.56300
C2055       C  0.86025594  0.67281391  0.51238377     0.77400
O2056       O  0.93185609  0.70900407  0.52699392    -0.58700
O2057       O  0.88718879  0.64978296  0.57174616    -0.57100
O2058       O  0.88901824  0.74757435  0.55008773    -0.57100
O2059       O  0.85284828  0.69410643  0.52445310    -0.56300
O2060       O  0.64595763  0.74826599  0.55919582    -0.57500
C2061       C  0.61221790  0.82567407  0.58859841     0.75100
O2062       O  0.61935396  0.81769853  0.51195652    -0.58700
C2063       C  0.63617976  0.73031748  0.54408369     0.75100
C2064       C  0.55432791  0.76446136  0.54636945     0.77500
Cd2065     Cd  0.61053528  0.78428739  0.54809888     1.37500
O2066       O  0.62208469  0.80154822  0.59158652    -0.57500
O2067       O  0.56770781  0.76682430  0.56672668    -0.56300
C2068       C  0.64395031  0.80979370  0.50905232     0.77400
O2069       O  0.56638200  0.77279715  0.52650181    -0.58700
O2070       O  0.60126927  0.83017455  0.56737649    -0.57100
O2071       O  0.61407161  0.73673875  0.53327255    -0.57100
O2072       O  0.65192030  0.79065324  0.52338251    -0.56300
O2073       O  0.96279972  0.80973827  0.98114065    -0.57500
C2074       C  0.93164145  0.88920487  0.99817302     0.75100
O2075       O  0.99190577  0.89109071  0.95153621    -0.58700
C2076       C  0.97471991  0.79861740  0.96230033     0.75100
C2077       C  0.91645364  0.85494497  0.91769629     0.77500
Cd2078     Cd  0.95620212  0.85508455  0.95944791     1.37500
O2079       O  0.92665158  0.86338766  0.99765176    -0.57500
O2080       O  0.91053028  0.84882707  0.94028982    -0.56300
C2081       C  0.51233284  0.88465005  0.96294629     0.77400
O2082       O  0.94131811  0.86139127  0.91383295    -0.58700
O2083       O  0.94722085  0.89840131  0.98108718    -0.57100
O2084       O  0.97658199  0.81325314  0.94256525    -0.57100
O2085       O  0.00272495  0.85718374  0.97592993    -0.56300
O2086       O  0.52935931  0.67652686  0.98686395    -0.57500
C2087       C  0.55869558  0.60041681  0.00802427     0.75100
O2088       O  0.50190286  0.59358012  0.95522234    -0.58700
C2089       C  0.52404162  0.68968265  0.96675357     0.75100
C2090       C  0.57663107  0.62423963  0.92556786     0.77500
Cd2091     Cd  0.53567837  0.63057260  0.96574865     1.37500
O2092       O  0.56450216  0.62575454  0.00477997    -0.57500
O2093       O  0.58222730  0.62785382  0.94861973    -0.56300
C2094       C  0.98263556  0.60560567  0.96336963     0.77400
O2095       O  0.55130657  0.62252883  0.92055691    -0.58700
O2096       O  0.54167245  0.59001236  0.99286568    -0.57100
O2097       O  0.52499813  0.67579788  0.94647563    -0.57100
O2098       O  0.48673379  0.62883579  0.97569632    -0.56300
O2099       O  0.78255390  0.79948443  0.78221971    -0.57500
C2100       C  0.81519775  0.87888471  0.76102771     0.75100
O2101       O  0.75275675  0.87953202  0.81150527    -0.58700
C2102       C  0.77079858  0.78994243  0.80180073     0.75100
C2103       C  0.83019355  0.85082805  0.84129016     0.77500
Cd2104     Cd  0.79002981  0.84639683  0.80070376     1.37500
O2105       O  0.82176177  0.85357249  0.76329965    -0.57500
O2106       O  0.83528379  0.84000085  0.82000408    -0.56300
C2107       C  0.73609668  0.86954363  0.79547739     0.77400
O2108       O  0.80595967  0.85979828  0.84434774    -0.58700
O2109       O  0.79739141  0.88791526  0.77627464    -0.57100
O2110       O  0.76976720  0.80596485  0.82073252    -0.57100
O2111       O  0.74405407  0.84846739  0.78330351    -0.56300
O2112       O  0.70875574  0.66867906  0.78562730    -0.57500
C2113       C  0.68065104  0.58696380  0.77152307     0.75100
O2114       O  0.74389102  0.59225283  0.82088391    -0.58700
C2115       C  0.72035988  0.68088730  0.80399068     0.75100
C2116       C  0.66205145  0.62226389  0.84763265     0.77500
Cd2117     Cd  0.70461021  0.62344807  0.80836287     1.37500
O2118       O  0.67449785  0.61248008  0.77170956    -0.57500
O2119       O  0.65777479  0.62968994  0.82513678    -0.56300
C2120       C  0.76026242  0.60246979  0.80465018     0.77400
O2121       O  0.68658390  0.61537659  0.85258836    -0.58700
O2122       O  0.69834440  0.57916828  0.78733185    -0.57100
O2123       O  0.72277333  0.66693226  0.82408773    -0.57100
O2124       O  0.75112990  0.62233704  0.79168629    -0.56300
O2125       O  0.89109946  0.99555811  0.06811174    -0.57500
C2126       C  0.86048004  0.57639494  0.09305873     0.75100
O2127       O  0.86507513  0.56470525  0.01490346    -0.58700
C2128       C  0.88242871  0.97860968  0.05155867     0.75100
C2129       C  0.79947087  0.51711375  0.05223467     0.77500
Cd2130     Cd  0.85664034  0.53431333  0.05334718     1.37500
O2131       O  0.86646162  0.55124757  0.09716734    -0.57500
O2132       O  0.81334007  0.51828993  0.07238187    -0.56300
C2133       C  0.88979746  0.55687350  0.01265222     0.77400
O2134       O  0.81167163  0.52529917  0.03239457    -0.58700
O2135       O  0.85319448  0.58196967  0.07073726    -0.57100
O2136       O  0.85948796  0.48432321  0.04418481    -0.57100
O2137       O  0.89754836  0.53836605  0.02774502    -0.56300
O2138       O  0.60130726  0.99400665  0.07190634    -0.57500
C2139       C  0.62911458  0.91482595  0.09623278     0.75100
O2140       O  0.62425055  0.92887222  0.01797959    -0.58700
C2141       C  0.61110059  0.01229778  0.05727143     0.75100
C2142       C  0.69067614  0.97137465  0.05599499     0.77500
Cd2143     Cd  0.63336274  0.95707344  0.05737653     1.37500
O2144       O  0.62104560  0.93943766  0.10017969    -0.57500
O2145       O  0.67742371  0.96971495  0.07651902    -0.56300
C2146       C  0.59928816  0.93600938  0.01676905     0.77400
O2147       O  0.67777677  0.96503276  0.03602826    -0.58700
O2148       O  0.63873876  0.91000056  0.07443751    -0.57100
O2149       O  0.63249194  0.00573006  0.04520356    -0.57100
O2150       O  0.59104783  0.95238997  0.03375454    -0.56300
O2151       O  0.89415006  0.73936692  0.20064549    -0.57500
C2152       C  0.86057943  0.66342128  0.17023765     0.75100
O2153       O  0.86710437  0.67258242  0.24962909    -0.58700
C2154       C  0.88469128  0.75756816  0.21572704     0.75100
C2155       C  0.80251294  0.72296089  0.21522513     0.77500
Cd2156     Cd  0.85894317  0.70390863  0.21224387     1.37500
O2157       O  0.86954826  0.68785620  0.16731751    -0.57500
O2158       O  0.81797704  0.72701397  0.19638224    -0.56300
C2159       C  0.89144244  0.68073415  0.25334256     0.77400
O2160       O  0.81268354  0.70849687  0.23285518    -0.58700
O2161       O  0.85145542  0.65811328  0.19206953    -0.57100
O2162       O  0.86274054  0.75150100  0.22713058    -0.57100
O2163       O  0.89996180  0.69945958  0.23877771    -0.56300
O2164       O  0.60290113  0.74973963  0.19861625    -0.57500
C2165       C  0.63023505  0.82769105  0.17229121     0.75100
O2166       O  0.62787322  0.81925606  0.24820481    -0.58700
C2167       C  0.61198527  0.73174452  0.21390788     0.75100
C2168       C  0.69398362  0.77266903  0.21530625     0.77500
Cd2169     Cd  0.63633848  0.78652805  0.21222354     1.37500
O2170       O  0.62836559  0.80195288  0.16775981    -0.57500
O2171       O  0.68093873  0.77372848  0.19473015    -0.56300
C2172       C  0.60353991  0.81087554  0.25154648     0.77400
O2173       O  0.68078605  0.77975782  0.23496094    -0.58700
O2174       O  0.63446451  0.83413062  0.19511251    -0.57100
O2175       O  0.63299863  0.73852012  0.22631193    -0.57100
O2176       O  0.59572917  0.79102357  0.23781858    -0.56300
C2177       C  0.76513512  0.74979022  0.19484614    -0.26000
C2178       C  0.77451079  0.73544920  0.21622734    -0.14100
C2179       C  0.75765425  0.73481286  0.23802760     0.36500
C2180       C  0.73216244  0.74863288  0.23786486    -0.25500
C2181       C  0.72263183  0.76222501  0.21614668    -0.14700
C2182       C  0.73958765  0.76309450  0.19453490     0.37600
N2183       N  0.73084768  0.77752601  0.17225012    -0.89000
H2184       H  0.77784678  0.75071182  0.17808510     0.18700
H2185       H  0.71913597  0.74771134  0.25442657     0.18700
N2186       N  0.76619138  0.72007339  0.26018574    -0.88000
H2187       H  0.74544790  0.77580609  0.15786039     0.36100
H2188       H  0.72951049  0.79853722  0.17682886     0.41200
H2189       H  0.76615032  0.69892078  0.25565551     0.40800
H2190       H  0.75204318  0.72260815  0.27474977     0.35700
C2191       C  0.63229860  0.86499337  0.10860461    -0.26000
C2192       C  0.62778331  0.89266816  0.11581763    -0.14100
C2193       C  0.62291329  0.89855294  0.14155908     0.36500
C2194       C  0.62333013  0.87705617  0.15944628    -0.25500
C2195       C  0.62813024  0.84937786  0.15228528    -0.14700
C2196       C  0.63225225  0.84333089  0.12639384     0.37600
N2197       N  0.63726379  0.81539973  0.11822062    -0.89000
H2198       H  0.63590345  0.86013883  0.08888771     0.18700
H2199       H  0.62002773  0.88217482  0.17916248     0.18700
N2200       N  0.61809602  0.92638450  0.14980399    -0.88000
H2201       H  0.64182747  0.81479209  0.09892799     0.36100
H2202       H  0.61900836  0.80441899  0.12045946     0.41200
H2203       H  0.63307923  0.93156364  0.16304670     0.40800
H2204       H  0.59907856  0.92703616  0.15885112     0.35700
C2205       C  0.85602889  0.61397061  0.15665613    -0.26000
C2206       C  0.86081370  0.64170498  0.14983787    -0.14100
C2207       C  0.86572233  0.64772268  0.12404472     0.36500
C2208       C  0.86588349  0.62603633  0.10604327    -0.25500
C2209       C  0.86151468  0.59830483  0.11305293    -0.14700
C2210       C  0.85676390  0.59228749  0.13878362     0.37600
N2211       N  0.85198669  0.56428468  0.14672003    -0.89000
H2212       H  0.85211772  0.60899110  0.17626667     0.18700
H2213       H  0.86943193  0.63085213  0.08632596     0.18700
N2214       N  0.87021384  0.67574620  0.11605578    -0.88000
H2215       H  0.84667372  0.56365945  0.16585259     0.36100
H2216       H  0.87053622  0.55366048  0.14510339     0.41200
H2217       H  0.85196115  0.68659801  0.11890887     0.40800
H2218       H  0.87427693  0.67649243  0.09666382     0.35700
C2219       C  0.72854066  0.99625663  0.03416618    -0.26000
C2220       C  0.71932072  0.98145340  0.05531336    -0.14100
C2221       C  0.73226377  0.48791594  0.07689657     0.36500
C2222       C  0.75844454  0.49973143  0.07555400    -0.25500
C2223       C  0.77090771  0.50590603  0.05227272    -0.14700
C2224       C  0.75488117  0.00789702  0.03343739     0.37600
N2225       N  0.76344526  0.02273042  0.01143423    -0.89000
H2226       H  0.71505542  0.99924600  0.01819930     0.18700
H2227       H  0.76899581  0.50426796  0.09304808     0.18700
N2228       N  0.72022674  0.48298643  0.10117874    -0.88000
H2229       H  0.74960419  0.03886397  0.00841285     0.36100
H2230       H  0.76238139  0.00926309  0.99597334     0.41200
H2231       H  0.71884268  0.50189847  0.11071538     0.40800
H2232       H  0.73328065  0.47005731  0.11138775     0.35700
C2233       C  0.75058084  0.74896568  0.77967588    -0.26000
C2234       C  0.75805831  0.76194424  0.80243894    -0.14100
C2235       C  0.75165833  0.74873525  0.82552018     0.36500
C2236       C  0.73885337  0.72273962  0.82523921    -0.25500
C2237       C  0.73151514  0.70958072  0.80255393    -0.14700
C2238       C  0.73691706  0.72323886  0.77945478     0.37600
N2239       N  0.72893313  0.71094564  0.75586031    -0.89000
H2240       H  0.75481161  0.75926877  0.76194468     0.18700
H2241       H  0.73468268  0.71259681  0.84305828     0.18700
N2242       N  0.75823371  0.76160250  0.84926394    -0.88000
H2243       H  0.73563463  0.72300404  0.74068980     0.36100
H2244       H  0.70756779  0.71122001  0.75521415     0.41200
H2245       H  0.77952376  0.76235600  0.85065629     0.40800
H2246       H  0.75133755  0.74957497  0.86439692     0.35700
C2247       C  0.93401374  0.60888904  0.97759502    -0.26000
C2248       C  0.95618899  0.59212476  0.97009559    -0.14100
C2249       C  0.95422028  0.56319205  0.97342856     0.36500
C2250       C  0.93114339  0.55206293  0.98568199    -0.25500
C2251       C  0.90982674  0.56901959  0.99465108    -0.14700
C2252       C  0.91095136  0.59771316  0.98994859     0.37600
N2253       N  0.88974133  0.61567087  0.99928136    -0.89000
H2254       H  0.93541002  0.63109586  0.97518091     0.18700
H2255       H  0.93039617  0.53002990  0.98937438     0.18700
N2256       N  0.97645192  0.54536951  0.96614910    -0.88000
H2257       H  0.89353338  0.63614436  0.99398839     0.36100
H2258       H  0.89048556  0.61525791  0.01901106     0.41200
H2259       H  0.47791760  0.54500374  0.94797665     0.40800
H2260       H  0.97240502  0.52490292  0.97128653     0.35700
C2261       C  0.55705961  0.56429987  0.04154851    -0.26000
C2262       C  0.57256764  0.58267937  0.02677852    -0.14100
C2263       C  0.60125454  0.58005928  0.02629146     0.36500
C2264       C  0.61360239  0.55750620  0.03849175    -0.25500
C2265       C  0.59790899  0.53764261  0.05133897    -0.14700
C2266       C  0.56956030  0.54210281  0.05436523     0.37600
N2267       N  0.55330599  0.52291064  0.06864143    -0.89000
H2268       H  0.53500383  0.56645461  0.04200276     0.18700
H2269       H  0.63543279  0.55430988  0.03641660     0.18700
N2270       N  0.61755008  0.59894027  0.01167338    -0.88000
H2271       H  0.53268425  0.52863638  0.06823368     0.36100
H2272       H  0.55188364  0.01593672  0.07564142     0.41200
H2273       H  0.61269651  0.59594380  0.99264242     0.40800
H2274       H  0.63833546  0.59429801  0.01348197     0.35700
C2275       C  0.64675043  0.62444282  0.89269353    -0.26000
C2276       C  0.63969319  0.62215651  0.86711327    -0.14100
C2277       C  0.61147507  0.62023947  0.86088411     0.36500
C2278       C  0.59151904  0.62020199  0.88010148    -0.25500
C2279       C  0.59861929  0.62272958  0.90573372    -0.14700
C2280       C  0.62675838  0.62501098  0.91195226     0.37600
N2281       N  0.63514517  0.62833352  0.93778551    -0.89000
H2282       H  0.66812377  0.62623609  0.89775219     0.18700
H2283       H  0.57018067  0.61865143  0.87481546     0.18700
N2284       N  0.60228698  0.61809527  0.83528533    -0.88000
H2285       H  0.65624150  0.63159451  0.93894312     0.36100
H2286       H  0.63128845  0.60965652  0.94702108     0.41200
H2287       H  0.61175761  0.60103530  0.82680412     0.40800
H2288       H  0.60779242  0.63608518  0.82563157     0.35700
C2289       C  0.93624280  0.93011631  0.02626159    -0.26000
C2290       C  0.91983935  0.90843055  0.01710778    -0.14100
C2291       C  0.89186439  0.90775265  0.02352937     0.36500
C2292       C  0.88052878  0.92977339  0.03750028    -0.25500
C2293       C  0.89651832  0.95247406  0.04500879    -0.14700
C2294       C  0.92492855  0.95207355  0.04033860     0.37600
N2295       N  0.94172060  0.97505395  0.04786794    -0.89000
H2296       H  0.95778256  0.93055287  0.02138195     0.18700
H2297       H  0.85868234  0.93021947  0.04098011     0.18700
N2298       N  0.87466075  0.88588034  0.01428574    -0.88000
H2299       H  0.96190403  0.97212871  0.04188600     0.36100
H2300       H  0.94216371  0.97537156  0.06761584     0.41200
H2301       H  0.87386223  0.88757800  0.99460994     0.40800
H2302       H  0.85462643  0.88841858  0.02083411     0.35700
C2303       C  0.53573172  0.92757428  0.97636723    -0.26000
C2304       C  0.53768958  0.89959934  0.96959054    -0.14100
C2305       C  0.56203272  0.88507939  0.97479993     0.36500
C2306       C  0.58315032  0.89806795  0.98834539    -0.25500
C2307       C  0.57998248  0.92516486  0.99750721    -0.14700
C2308       C  0.55643125  0.94042450  0.99060095     0.37600
N2309       N  0.55298069  0.96850202  0.99910254    -0.89000
H2310       H  0.51699185  0.93875204  0.97250880     0.18700
H2311       H  0.60115450  0.88620756  0.99329545     0.18700
N2312       N  0.56485794  0.85673283  0.96726061    -0.88000
H2313       H  0.53441789  0.97657074  0.99290631     0.36100
H2314       H  0.56842502  0.98039467  0.99067915     0.41200
H2315       H  0.56823192  0.84489196  0.98344381     0.40800
H2316       H  0.58216870  0.85509653  0.95570968     0.35700
C2317       C  0.86717404  0.85477468  0.90492102    -0.26000
C2318       C  0.89489575  0.85471907  0.89750260    -0.14100
C2319       C  0.90102245  0.85378265  0.87134697     0.36500
C2320       C  0.87951594  0.85260368  0.85360925    -0.25500
C2321       C  0.85187060  0.85274182  0.86110776    -0.14700
C2322       C  0.84570973  0.85387841  0.88716151     0.37600
N2323       N  0.81775245  0.85355074  0.89562642    -0.89000
H2324       H  0.86211778  0.85544255  0.92484426     0.18700
H2325       H  0.88443387  0.85176033  0.83365224     0.18700
N2326       N  0.92892367  0.85330502  0.86275120    -0.88000
H2327       H  0.81673002  0.85478240  0.91532368     0.36100
H2328       H  0.80944647  0.83437853  0.89062574     0.41200
H2329       H  0.93738291  0.87267564  0.86669514     0.40800
H2330       H  0.92979638  0.85099125  0.84311044     0.35700
C2331       C  0.00820190  0.73091347  0.98313943    -0.26000
C2332       C  0.51561249  0.71928282  0.96690874    -0.14100
C2333       C  0.52100781  0.73693254  0.94627330     0.36500
C2334       C  0.50902971  0.76349113  0.94560285    -0.25500
C2335       C  0.98618175  0.77011302  0.96260536    -0.14700
C2336       C  0.99600898  0.75731793  0.98476857     0.37600
N2337       N  0.99420624  0.77126879  0.00873024    -0.89000
H2338       H  0.01563613  0.72122750  0.00021899     0.18700
H2339       H  0.51309661  0.77678103  0.92958467     0.18700
N2340       N  0.53871523  0.72788070  0.92614500    -0.88000
H2341       H  0.00377256  0.75964816  0.02281602     0.36100
H2342       H  0.97354223  0.77221888  0.01372101     0.41200
H2343       H  0.55820049  0.72493897  0.93379570     0.40800
H2344       H  0.54067584  0.74328603  0.91244603     0.35700
C2345       C  0.48839031  0.72771448  0.52604343    -0.26000
C2346       C  0.97660529  0.72239706  0.54267115    -0.14100
C2347       C  0.99547023  0.72013007  0.56266930     0.36500
C2348       C  0.02092799  0.73331606  0.56114379    -0.25500
C2349       C  0.52623525  0.75231066  0.54628728    -0.14700
C2350       C  0.51462894  0.73984482  0.52466699     0.37600
N2351       N  0.52963518  0.73879447  0.50142024    -0.89000
H2352       H  0.47991949  0.71819931  0.50925029     0.18700
H2353       H  0.03469790  0.73142535  0.57703772     0.18700
N2354       N  0.98895838  0.70438944  0.58476300    -0.88000
H2355       H  0.51806617  0.74876852  0.48757134     0.36100
H2356       H  0.53176380  0.71805737  0.49613822     0.41200
H2357       H  0.99025715  0.71748424  0.60043105     0.40800
H2358       H  0.00372552  0.68885639  0.58672539     0.35700
C2359       C  0.83185486  0.59600590  0.77746522    -0.26000
C2360       C  0.83371140  0.56726776  0.77434941    -0.14100
C2361       C  0.81396566  0.55023008  0.78596401     0.36500
C2362       C  0.79147467  0.56213319  0.79859611    -0.25500
C2363       C  0.78789598  0.59093413  0.79915224    -0.14700
C2364       C  0.80907539  0.60804366  0.78969952     0.37600
N2365       N  0.80673895  0.63762091  0.79157750    -0.89000
H2366       H  0.84711587  0.60915007  0.76874029     0.18700
H2367       H  0.77562133  0.54874391  0.80600723     0.18700
N2368       N  0.81618697  0.52074377  0.78405865    -0.88000
H2369       H  0.82349684  0.64725193  0.78300202     0.36100
H2370       H  0.80747377  0.64278669  0.81074757     0.41200
H2371       H  0.79853158  0.51323465  0.77533083     0.40800
H2372       H  0.81689416  0.51269938  0.80235982     0.35700
C2373       C  0.85645181  0.89842477  0.73952889    -0.26000
C2374       C  0.82795299  0.89804187  0.74263227    -0.14100
C2375       C  0.81215408  0.91938546  0.73183003     0.36500
C2376       C  0.82521402  0.94236244  0.72097434    -0.25500
C2377       C  0.85381145  0.94429741  0.72035429    -0.14700
C2378       C  0.86951589  0.92145149  0.72858411     0.37600
N2379       N  0.89874844  0.92200197  0.72677724    -0.89000
H2380       H  0.86875969  0.88190851  0.74736703     0.18700
H2381       H  0.81295573  0.95957401  0.71443086     0.18700
N2382       N  0.78280521  0.91804453  0.73280967    -0.88000
H2383       H  0.90498035  0.90500267  0.71593589     0.36100
H2384       H  0.90675678  0.91966757  0.74493271     0.41200
H2385       H  0.77680213  0.90092832  0.72204980     0.40800
H2386       H  0.77414698  0.93542924  0.72426981     0.35700
C2387       C  0.88124759  0.64286449  0.64056087    -0.26000
C2388       C  0.88387398  0.63465709  0.61516635    -0.14100
C2389       C  0.88474176  0.60593213  0.60968809     0.36500
C2390       C  0.88345274  0.58641877  0.62937155    -0.25500
C2391       C  0.88169377  0.59470147  0.65475096    -0.14700
C2392       C  0.88020181  0.62331059  0.66024137     0.37600
N2393       N  0.87744269  0.63271504  0.68580019    -0.89000
H2394       H  0.88019092  0.66465834  0.64529540     0.18700
H2395       H  0.88463423  0.56460019  0.62472567     0.18700
N2396       N  0.88733312  0.59628469  0.58419015    -0.88000
H2397       H  0.85961163  0.64453518  0.68713930     0.36100
H2398       H  0.89405587  0.64560944  0.68986257     0.41200
H2399       H  0.87055704  0.58365110  0.58020179     0.40800
H2400       H  0.90501867  0.58415315  0.58291899     0.35700
C2401       C  0.68380845  0.54518362  0.74449420    -0.26000
C2402       C  0.66767343  0.56664530  0.75445209    -0.14100
C2403       C  0.63919780  0.56658083  0.75016766     0.36500
C2404       C  0.62727748  0.54395083  0.73754786    -0.25500
C2405       C  0.64339181  0.52206967  0.72834955    -0.05100
C2406       C  0.67204155  0.52327407  0.73086328     0.37600
N2407       N  0.69303056  0.99861922  0.72409006    -0.89000
H2408       H  0.70568203  0.54531287  0.74773506     0.18700
H2409       H  0.60524073  0.54285170  0.73566680     0.18700
N2410       N  0.62236024  0.58869068  0.75967673    -0.88000
H2411       H  0.71360174  0.00078265  0.72902042     0.36100
H2412       H  0.69244817  0.99827961  0.70435109     0.41200
H2413       H  0.62304559  0.58802085  0.77940861     0.40800
H2414       H  0.60194871  0.58561931  0.75460357     0.35700
C2415       C  0.68303073  0.92286991  0.77742824    -0.26000
C2416       C  0.66267109  0.90596961  0.76694899    -0.14100
C2417       C  0.66434607  0.87708306  0.76980939     0.36500
C2418       C  0.68779404  0.86554661  0.78104824    -0.25500
C2419       C  0.70934172  0.88241692  0.78963317    -0.14700
C2420       C  0.70642752  0.91144104  0.78867481     0.37600
N2421       N  0.72813293  0.92920866  0.79714578    -0.89000
H2422       H  0.68158334  0.94510586  0.77516233     0.18700
H2423       H  0.68993739  0.84325133  0.78188469     0.18700
N2424       N  0.64346590  0.85957035  0.75937891    -0.88000
H2425       H  0.72243744  0.94998078  0.79562137     0.36100
H2426       H  0.74471839  0.92638982  0.78487769     0.41200
H2427       H  0.62541028  0.86344475  0.76939492     0.40800
H2428       H  0.64823874  0.83874019  0.76233684     0.35700
C2429       C  0.60906499  0.89535028  0.62348041    -0.26000
C2430       C  0.61506933  0.88737062  0.64829582    -0.14100
C2431       C  0.62147914  0.85941181  0.65321364     0.36500
C2432       C  0.62038569  0.83977958  0.63352461    -0.25500
C2433       C  0.61342544  0.84742087  0.60877364    -0.14700
C2434       C  0.60815590  0.87572846  0.60375924     0.37600
N2435       N  0.60219227  0.88481598  0.57864656    -0.89000
H2436       H  0.60443675  0.91681865  0.61943863     0.18700
H2437       H  0.62494454  0.81833004  0.63760735     0.18700
N2438       N  0.62943835  0.85110214  0.67819789    -0.88000
H2439       H  0.61694331  0.89940289  0.57345613     0.36100
H2440       H  0.58316736  0.89469461  0.57890574     0.41200
H2441       H  0.64783552  0.86114446  0.68242952     0.40800
H2442       H  0.63351706  0.82990765  0.67873496     0.35700
C2443       C  0.51408245  0.48478840  0.69204203    -0.26000
C2444       C  0.52465591  0.97263594  0.71396934    -0.14100
C2445       C  0.00914497  0.97234767  0.73604830     0.36500
C2446       C  0.98350350  0.98594270  0.73596163    -0.25500
C2447       C  0.97186081  0.50402897  0.71540115    -0.14700
C2448       C  0.48866719  0.49826429  0.69158067     0.37600
N2449       N  0.48049388  0.51272190  0.66925743    -0.89000
H2450       H  0.52682572  0.48567119  0.67528915     0.18700
H2451       H  0.97072905  0.98523188  0.75270691     0.18700
N2452       N  0.01760651  0.95704899  0.75790943    -0.88000
H2453       H  0.48006376  0.49854781  0.65430694     0.36100
H2454       H  0.99572011  0.53835422  0.67034419     0.41200
H2455       H  0.51636510  0.93096741  0.74872928     0.40800
H2456       H  0.00292536  0.95859228  0.77227337     0.35700
C2457       C  0.86601514  0.80032507  0.54240150    -0.26000
C2458       C  0.85003773  0.77762390  0.55008532    -0.14100
C2459       C  0.82140821  0.77915836  0.54693070     0.36500
C2460       C  0.80980475  0.80183730  0.53414256    -0.25500
C2461       C  0.82615567  0.82338483  0.52457155    -0.14700
C2462       C  0.85448296  0.82305901  0.52965531     0.37600
N2463       N  0.87186472  0.84451786  0.51991664    -0.89000
H2464       H  0.88798747  0.79954175  0.54484224     0.18700
H2465       H  0.78799205  0.80188158  0.53056663     0.18700
N2466       N  0.80416426  0.75697921  0.55514790    -0.88000
H2467       H  0.89239797  0.84019463  0.52371232     0.36100
H2468       H  0.86718440  0.86269048  0.52975476     0.41200
H2469       H  0.79388691  0.74912068  0.53940150     0.40800
H2470       H  0.78957397  0.76513216  0.56758939     0.35700
C2471       C  0.70621449  0.81812467  0.46745588    -0.26000
C2472       C  0.71061739  0.84673024  0.46930214    -0.14100
C2473       C  0.68958252  0.86358572  0.47945692     0.36500
C2474       C  0.66614763  0.85135697  0.49013647    -0.25500
C2475       C  0.66347869  0.82251025  0.49104662    -0.14700
C2476       C  0.68296944  0.80593336  0.47840352     0.37600
N2477       N  0.67968987  0.77650168  0.47753748    -0.89000
H2478       H  0.72181142  0.80487730  0.45929590     0.18700
H2479       H  0.65115907  0.86436799  0.49950702     0.18700
N2480       N  0.69245460  0.89308057  0.47993785    -0.88000
H2481       H  0.69675635  0.76744744  0.48602158     0.36100
H2482       H  0.67938306  0.77041158  0.45857203     0.41200
H2483       H  0.69131924  0.89969248  0.49872722     0.40800
H2484       H  0.67594510  0.90166161  0.47019258     0.35700
C2485       C  0.67916425  0.70415124  0.53508665    -0.26000
C2486       C  0.65053813  0.70417761  0.53720548    -0.14100
C2487       C  0.63579189  0.68093934  0.52831299     0.36500
C2488       C  0.64967385  0.65945145  0.51556175    -0.25500
C2489       C  0.67789108  0.66099184  0.51099512    -0.14700
C2490       C  0.69290681  0.68303355  0.52192679     0.37600
N2491       N  0.72209570  0.68462369  0.51987190    -0.89000
H2492       H  0.69079683  0.72165503  0.54202451     0.18700
H2493       H  0.63812606  0.64238176  0.50767024     0.18700
N2494       N  0.60658555  0.67984820  0.53128389    -0.88000
H2495       H  0.72755029  0.68704120  0.50091844     0.36100
H2496       H  0.73043021  0.66613343  0.52655344     0.41200
H2497       H  0.60239185  0.67899373  0.55064736     0.40800
H2498       H  0.59874262  0.66170420  0.52334672     0.35700
C2499       C  0.81617691  0.62100046  0.47696368    -0.26000
C2500       C  0.79638726  0.63879911  0.46661334    -0.14100
C2501       C  0.80052853  0.66750596  0.46792797     0.36500
C2502       C  0.82319633  0.67801849  0.48096999    -0.25500
C2503       C  0.84172085  0.66040353  0.49329344    -0.14700
C2504       C  0.83884132  0.63146901  0.49036746     0.37600
N2505       N  0.85762386  0.61282544  0.50241689    -0.89000
H2506       H  0.81287528  0.59884367  0.47612131     0.18700
H2507       H  0.82521002  0.70024270  0.48298677     0.18700
N2508       N  0.78036207  0.68613024  0.45825310    -0.88000
H2509       H  0.85283269  0.59232108  0.49796953     0.36100
H2510       H  0.85497325  0.61485922  0.52195373     0.41200
H2511       H  0.78996480  0.69934019  0.44541108     0.40800
H2512       H  0.77303309  0.69814513  0.47328764     0.35700
C2513       C  0.76374682  0.97671959  0.44097807    -0.26000
C2514       C  0.76811559  0.96484575  0.46485067    -0.14100
C2515       C  0.76003031  0.97993760  0.48659614     0.36500
C2516       C  0.74745828  0.00609028  0.48378852    -0.25500
C2517       C  0.74730266  0.52178871  0.45836816    -0.14700
C2518       C  0.75297995  0.50589156  0.43655258     0.37600
N2519       N  0.74769121  0.51671275  0.41188754    -0.89000
H2520       H  0.76975039  0.96561890  0.42403690     0.18700
H2521       H  0.74132002  0.01754036  0.50048969     0.18700
N2522       N  0.76447959  0.96882353  0.51139635    -0.88000
H2523       H  0.73417352  0.50336953  0.40269169     0.36100
H2524       H  0.76612651  0.51676128  0.40179308     0.41200
H2525       H  0.75189124  0.95152230  0.51337009     0.40800
H2526       H  0.75825654  0.98297491  0.52527709     0.35700
C2527       C  0.61408012  0.68230501  0.22690848    -0.26000
C2528       C  0.59814677  0.70495569  0.21908066    -0.14100
C2529       C  0.56938156  0.70316872  0.22100784     0.36500
C2530       C  0.55761193  0.68066252  0.23387867    -0.25500
C2531       C  0.57385500  0.65953627  0.24412401    -0.14700
C2532       C  0.60214642  0.65927469  0.23891072     0.37600
N2533       N  0.61890000  0.63677621  0.24751700    -0.89000
H2534       H  0.63611636  0.68327276  0.22487072     0.18700
H2535       H  0.53574468  0.68044387  0.23728086     0.18700
N2536       N  0.55230042  0.72501874  0.21158703    -0.88000
H2537       H  0.63945925  0.64026158  0.24281809     0.36100
H2538       H  0.61299002  0.61914044  0.23755731     0.41200
H2539       H  0.55557565  0.74247639  0.22286638     0.40800
H2540       H  0.53164155  0.71987893  0.21363422     0.35700
C2541       C  0.92915698  0.68528027  0.28485305    -0.26000
C2542       C  0.91008618  0.66831080  0.27234110    -0.14100
C2543       C  0.91242761  0.63938355  0.27458397     0.36500
C2544       C  0.93531143  0.62805175  0.28685607    -0.25500
C2545       C  0.95578167  0.64493338  0.29739994    -0.14700
C2546       C  0.95186967  0.67391224  0.29758702     0.37600
N2547       N  0.97172858  0.69178534  0.30915544    -0.89000
H2548       H  0.92720153  0.70755567  0.28339468     0.18700
H2549       H  0.93792735  0.60579033  0.28698966     0.18700
N2550       N  0.89290059  0.62158333  0.26247205    -0.88000
H2551       H  0.96515107  0.71238710  0.30855861     0.36100
H2552       H  0.48174755  0.70516776  0.28921137     0.41200
H2553       H  0.87438381  0.62375908  0.27216125     0.40800
H2554       H  0.89866075  0.60083412  0.26428379     0.35700
C2555       C  0.59947822  0.61501133  0.38697809    -0.26000
C2556       C  0.60495139  0.61457004  0.36093370    -0.14100
C2557       C  0.63260899  0.61478814  0.35292507     0.36500
C2558       C  0.65393619  0.61414183  0.37081648    -0.25500
C2559       C  0.64847403  0.61323986  0.39687075    -0.14700
C2560       C  0.62079659  0.61455634  0.40495910     0.37600
N2561       N  0.61433002  0.61572603  0.43144415    -0.89000
H2562       H  0.57842712  0.61538078  0.39339793     0.18700
H2563       H  0.67491745  0.61377859  0.36419536     0.18700
N2564       N  0.63925395  0.61593777  0.32657786    -0.88000
H2565       H  0.59319973  0.61621785  0.43425203     0.36100
H2566       H  0.62194208  0.63447991  0.43844877     0.41200
H2567       H  0.65132502  0.59872920  0.32212193     0.40800
H2568       H  0.65091635  0.63371633  0.32342666     0.35700
C2569       C  0.55933407  0.86427644  0.28434284    -0.26000
C2570       C  0.53810941  0.84742861  0.29343662    -0.14100
C2571       C  0.54094515  0.81843406  0.29241399     0.36500
C2572       C  0.56396780  0.80695740  0.28042225    -0.25500
C2573       C  0.58412184  0.82381713  0.26944816    -0.14700
C2574       C  0.58237733  0.85279406  0.27230833     0.37600
N2575       N  0.60274767  0.87053182  0.26131955    -0.89000
H2576       H  0.55699168  0.88656605  0.28506745     0.18700
H2577       H  0.56540133  0.78469291  0.27828935     0.18700
N2578       N  0.51934100  0.80081016  0.30135677    -0.88000
H2579       H  0.59893705  0.89119924  0.26605943     0.36100
H2580       H  0.60089300  0.86908698  0.24168898     0.41200
H2581       H  0.51830896  0.80307576  0.32096913     0.40800
H2582       H  0.52402079  0.78002102  0.29789832     0.35700
C2583       C  0.89881992  0.82991584  0.24032569    -0.26000
C2584       C  0.92679897  0.82801819  0.24578303    -0.14100
C2585       C  0.94175471  0.80496455  0.23664416     0.36500
C2586       C  0.92787253  0.78310798  0.22451690    -0.25500
C2587       C  0.89933901  0.78365642  0.22173949    -0.14700
C2588       C  0.88491793  0.80772999  0.22892549     0.37600
N2589       N  0.85589364  0.80923576  0.22568188    -0.89000
H2590       H  0.88717460  0.84760790  0.24692747     0.18700
H2591       H  0.93909575  0.76472138  0.21896454     0.18700
N2592       N  0.97077911  0.80332715  0.24066054    -0.88000
H2593       H  0.85158085  0.82639645  0.21438828     0.36100
H2594       H  0.84697025  0.81255830  0.24340043     0.41200
H2595       H  0.97985056  0.81945554  0.23053674     0.40800
H2596       H  0.97864588  0.78491347  0.23318864     0.35700
C2597       C  0.90509591  0.87358685  0.39130231    -0.26000
C2598       C  0.89736870  0.87318700  0.36574829    -0.14100
C2599       C  0.86913553  0.87027563  0.36003120     0.36500
C2600       C  0.84965665  0.86925320  0.37957850    -0.25500
C2601       C  0.85730082  0.87088618  0.40510225    -0.14700
C2602       C  0.88552354  0.87225241  0.41086328     0.37600
N2603       N  0.89456878  0.87211144  0.43656854    -0.89000
H2604       H  0.92652156  0.87525659  0.39624053     0.18700
H2605       H  0.82823317  0.86760979  0.37463890     0.18700
N2606       N  0.85947417  0.86774496  0.33461541    -0.88000
H2607       H  0.90574856  0.89022051  0.43980235     0.36100
H2608       H  0.90771158  0.85527669  0.43894163     0.41200
H2609       H  0.86960505  0.85128549  0.32588925     0.40800
H2610       H  0.86369791  0.88609006  0.32489106     0.35700
C2611       C  0.99882759  0.97893606  0.32541615    -0.26000
C2612       C  0.98904124  0.96702022  0.30294029    -0.14100
C2613       C  0.48818797  0.98503552  0.28045027     0.36500
C2614       C  0.50036886  0.01141745  0.28139467    -0.25500
C2615       C  0.50839466  0.52376600  0.30317030    -0.14700
C2616       C  0.00096860  0.50776242  0.32641661     0.37600
N2617       N  0.00608135  0.51985367  0.35068143    -0.89000
H2618       H  0.99701615  0.96781873  0.34308611     0.18700
H2619       H  0.50258986  0.02304179  0.26403962     0.18700
N2620       N  0.48004461  0.97381137  0.25657806    -0.88000
H2621       H  0.01938757  0.50685188  0.36050525     0.36100
H2622       H  0.98757694  0.52067762  0.36061707     0.41200
H2623       H  0.49730738  0.97287118  0.24492104     0.40800
H2624       H  0.46606293  0.98746936  0.24839305     0.35700
loop_ 
_geom_bond_atom_site_label_1 
_geom_bond_atom_site_label_2 
_geom_bond_distance 
_geom_bond_site_symmetry_2 
_ccdc_geom_bond_type 
O1            C4   1.271       .  A
O1           Cd6   2.508       .  S
C2           O11   1.262       .  A
C2            O7   1.271       .  A
C2          C616   1.481       .  S
O3         C1321   1.270       .  A
O3           Cd6   2.493       .  S
C4           O12   1.266       .  A
C4          C644   1.492       .  S
C5           O10   1.270       .  A
C5            O8   1.263       .  A
C5          C630   1.499       .  S
Cd6          O13   2.442       .  S
Cd6          O12   2.439       .  S
Cd6          O11   2.422       .  S
Cd6           O7   2.517       .  S
Cd6          O10   2.510       .  S
Cd6           O8   2.462       .  S
C9         O1315   1.272   1_455  A
C9         O1325   1.263       .  A
C9          C602   1.490       .  S
O13        C1321   1.264       .  A
O14          C17   1.271       .  A
O14         Cd19   2.508       .  S
C15          O24   1.264       .  A
C15          O20   1.271       .  A
C15         C563   1.482       .  S
O16        C1334   1.274   1_455  A
O16         Cd19   2.543       .  S
C17          O25   1.266       .  A
C17         C647   1.493       .  S
C18          O23   1.274       .  A
C18          O21   1.264       .  A
C18         C588   1.505       .  S
Cd19         O26   2.456   1_455  S
Cd19         O25   2.453       .  S
Cd19         O24   2.416       .  S
Cd19         O20   2.525       .  S
Cd19         O23   2.548       .  S
Cd19         O21   2.473       .  S
C22        O1328   1.273       .  A
C22        O1338   1.263       .  A
C22         C577   1.491       .  S
O26        C1334   1.265       .  A
O27          C30   1.272       .  A
O27         Cd32   2.488       .  S
C28          O37   1.262       .  A
C28          O33   1.271       .  A
C28         C521   1.480       .  S
O29          C35   1.272       .  A
O29         Cd32   2.526       .  S
C30          O38   1.268       .  A
C30         C549   1.490       .  S
C31          O36   1.273       .  A
C31          O34   1.266       .  A
C31         C591   1.504       .  S
Cd32         O39   2.437       .  S
Cd32         O38   2.437       .  S
Cd32         O37   2.428       .  S
Cd32         O33   2.512       .  S
Cd32         O36   2.536       .  S
Cd32         O34   2.483       .  S
C35          O39   1.262       .  A
C35         C532   1.488       .  S
O40          C43   1.271       .  A
O40         Cd45   2.521       .  S
C41          O50   1.262       .  A
C41          O46   1.270       .  A
C41         C493   1.488       .  S
O42          C48   1.272       .  A
O42         Cd45   2.506       .  S
C43          O51   1.264       .  A
C43         C546   1.491       .  S
C44          O49   1.271       .  A
C44          O47   1.265       .  A
C44         C633   1.495       .  S
Cd45         O52   2.454       .  S
Cd45         O51   2.419       .  S
Cd45         O50   2.438       .  S
Cd45         O46   2.521       .  S
Cd45         O49   2.518       .  S
Cd45         O47   2.476       .  S
C48          O52   1.265       .  A
C48         C504   1.485       .  S
O53          C56   1.264       .  A
O53         Cd58   2.435       .  S
C54          O63   1.265       .  A
C54          O59   1.271       .  A
C54         C462   1.492       .  S
O55          C61   1.263       .  A
O55         Cd58   2.427       .  S
C56          O64   1.273       .  A
C56        C1093   1.476       .  S
C57          O62   1.272       .  A
C57          O60   1.267       .  A
C57         C476   1.494       .  S
Cd58         O65   2.524       .  S
Cd58         O64   2.481       .  S
Cd58         O63   2.460       .  S
Cd58         O59   2.530       .  S
Cd58         O62   2.494       .  S
Cd58         O60   2.424       .  S
C61          O65   1.272       .  A
C61         C448   1.484       .  S
O66          C69   1.273       .  A
O66        Cd727   2.507       .  S
C67          O76   1.265       .  A
C67          O72   1.271       .  A
C67         C423   1.503       .  S
O68          C74   1.271       .  A
O68         Cd71   2.554       .  S
C69         O733   1.263       .  A
C69         C409   1.484       .  S
C70          O75   1.271       .  A
C70          O73   1.264       .  A
C70         C479   1.483   1_545  S
Cd71         O78   2.436       .  S
Cd71         O77   2.445   1_545  S
Cd71         O76   2.465       .  S
Cd71         O72   2.542       .  S
Cd71         O75   2.503       .  S
Cd71         O73   2.430       .  S
Cd71        O722   2.501   1_545  S
C74          O78   1.263       .  A
C74         C392   1.490       .  S
O77         C725   1.264       .  A
O79          C82   1.273       .  A
O79         Cd84   2.516       .  S
C80          O89   1.264       .  A
C80          O85   1.271       .  A
C80         C420   1.497       .  S
O81          C87   1.271       .  A
O81         Cd84   2.493       .  S
C82          O90   1.263       .  A
C82         C490   1.486       .  S
C83          O88   1.270       .  A
C83          O86   1.266       .  A
C83         C378   1.490       .  S
Cd84         O91   2.423       .  S
Cd84         O90   2.442       .  S
Cd84         O89   2.483       .  S
Cd84         O85   2.511       .  S
Cd84         O88   2.487       .  S
Cd84         O86   2.448       .  S
C87          O91   1.264       .  A
C87         C535   1.479       .  S
O92          C95   1.271       .  A
O92         Cd97   2.499       .  S
C93         O102   1.267       .  A
C93          O98   1.271       .  A
C93         C465   1.497       .  S
O94         C100   1.274       .  A
O94         Cd97   2.547       .  S
C95         O103   1.264       .  A
C95         C518   1.476       .  S
C96         O101   1.272       .  A
C96          O99   1.267       .  A
C96         C381   1.499       .  S
Cd97        O104   2.409       .  S
Cd97        O103   2.409       .  S
Cd97        O102   2.462       .  S
Cd97         O98   2.498       .  S
Cd97        O101   2.501       .  S
Cd97         O99   2.481       .  S
C100        O104   1.261       .  A
C100        C507   1.481       .  S
O105        C108   1.271       .  A
O105       Cd110   2.484       .  S
C106        O115   1.261   1_554  A
C106        O111   1.271   1_554  A
C106        C322   1.477       .  S
O107       C1425   1.268       .  A
O107       Cd110   2.483       .  S
C108        O116   1.268       .  A
C108        C367   1.494       .  S
C109        O114   1.270       .  A
C109        O112   1.265       .  A
C109        C350   1.497       .  S
Cd110       O117   2.465       .  S
Cd110       O116   2.447       .  S
Cd110       O115   2.412       .  S
Cd110       O111   2.519       .  S
Cd110       O114   2.511       .  S
Cd110       O112   2.482       .  S
C113       O1419   1.271   1_455  A
C113       O1429   1.262       .  A
C113        C336   1.488       .  S
O117       C1425   1.263       .  A
O118        C121   1.270       .  A
O118       Cd123   2.497       .  S
C119        O128   1.262   1_554  A
C119        O124   1.270       .  A
C119        C294   1.475       .  S
O120       C1438   1.272   1_455  A
O120       Cd123   2.520       .  S
C121        O129   1.266       .  A
C121        C364   1.492       .  S
C122        O127   1.272       .  A
C122        O125   1.264       .  A
C122        C311   1.499       .  S
Cd123       O130   2.442   1_455  S
Cd123       O129   2.453       .  S
Cd123       O128   2.413       .  S
Cd123       O124   2.495   1_556  S
Cd123       O127   2.519       .  S
Cd123       O125   2.487       .  S
C126       O1432   1.270       .  A
C126       O1442   1.265       .  A
C126        C280   1.491       .  S
O130       C1438   1.265       .  A
O131        C134   1.271       .  A
O131       Cd136   2.504       .  S
C132        O141   1.262       .  A
C132        O137   1.270       .  A
C132        C406   1.475       .  S
O133        C139   1.273       .  A
O133       Cd136   2.496       .  S
C134        O142   1.266       .  A
C134        C266   1.493       .  S
C135        O140   1.272       .  A
C135        O138   1.266       .  A
C135        C353   1.503       .  S
Cd136       O143   2.433       .  S
Cd136       O142   2.446       .  S
Cd136       O141   2.424       .  S
Cd136       O137   2.503       .  S
Cd136       O140   2.537       .  S
Cd136       O138   2.471       .  S
C139        O143   1.264       .  A
C139        C451   1.484       .  S
O144        C147   1.271       .  A
O144       Cd149   2.499       .  S
C145        O154   1.262       .  A
C145        O150   1.271       .  A
C145        C434   1.484       .  S
O146        C152   1.272       .  A
O146       Cd149   2.488       .  S
C147        O155   1.267       .  A
C147        C269   1.495       .  S
C148        O153   1.271       .  A
C148        O151   1.263       .  A
C148        C308   1.499       .  S
Cd149       O156   2.432       .  S
Cd149       O155   2.452       .  S
Cd149       O154   2.445       .  S
Cd149       O150   2.518       .  S
Cd149       O153   2.535       .  S
Cd149       O151   2.445       .  S
C152        O156   1.265       .  A
C152        C395   1.481       .  S
O157        C160   1.272       .  A
O157       Cd818   2.497       .  S
C158        O167   1.267       .  A
C158        O163   1.271       .  A
C158        C241   1.498       .  S
O159        C165   1.273       .  A
O159       Cd162   2.532       .  S
C160        O824   1.265       .  A
C160        C325   1.480       .  S
C161        O166   1.272       .  A
C161        O164   1.267       .  A
C161        C255   1.498       .  S
Cd162       O169   2.431       .  S
Cd162       O168   2.440   1_545  S
Cd162       O167   2.504       .  S
Cd162       O163   2.513       .  S
Cd162       O166   2.516       .  S
Cd162       O164   2.459       .  S
Cd162       O813   2.511   1_545  S
C165        O169   1.263       .  A
C165        C283   1.489   1_554  S
O168        C816   1.264       .  A
O170        C173   1.270       .  A
O170       Cd175   2.481       .  S
C171        O180   1.266       .  A
C171        O176   1.269       .  A
C171        C224   1.500       .  S
O172        C178   1.270       .  A
O172       Cd175   2.526       .  S
C173        O181   1.265       .  A
C173        C953   1.483       .  S
C174        O179   1.269       .  A
C174        O177   1.264       .  A
C174        C252   1.486       .  S
Cd175       O182   2.463       .  S
Cd175       O181   2.428       .  S
Cd175       O180   2.473       .  S
Cd175       O176   2.528       .  S
Cd175       O179   2.495       .  S
Cd175       O177   2.448       .  S
C178        O182   1.260       .  A
C178        C339   1.489   1_554  S
O183        C186   1.272       .  A
O183       Cd188   2.505       .  S
C184        O193   1.266       .  A
C184        O189   1.271       .  A
C184        C238   1.501       .  S
O185        C191   1.270       .  A
O185       Cd188   2.519       .  S
C186        O194   1.263       .  A
C186        C619   1.479       .  S
C187        O192   1.270       .  A
C187        O190   1.266       .  A
C187        C210   1.493       .  S
Cd188       O195   2.436       .  S
Cd188       O194   2.415       .  S
Cd188       O193   2.460       .  S
Cd188       O189   2.540       .  S
Cd188       O192   2.508       .  S
Cd188       O190   2.439       .  S
C191        O195   1.262       .  A
C191        C574   1.482       .  S
O196        C199   1.272       .  A
O196       Cd201   2.519       .  S
C197        O206   1.266       .  A
C197        O202   1.271       .  A
C197        C227   1.501       .  S
O198        C204   1.270       .  A
O198       Cd201   2.521       .  S
C199        O207   1.263       .  A
C199        C560   1.488       .  S
C200        O205   1.269       .  A
C200        O203   1.265       .  A
C200        C213   1.491       .  S
Cd201       O208   2.423       .  S
Cd201       O207   2.450       .  S
Cd201       O206   2.491       .  S
Cd201       O202   2.510       .  S
Cd201       O205   2.498       .  S
Cd201       O203   2.450       .  S
C204        O208   1.263       .  A
C204        C605   1.481       .  S
C209        C210   1.406       .  A
C209        C214   1.405       .  A
C209        H216   1.083       .  S
C210        C211   1.413       .  A
C211        C212   1.409       .  A
C211        N218   1.432       .  S
C212        C213   1.407       .  A
C212        H217   1.084       .  S
C213        C214   1.415       .  A
C214        N215   1.438       .  S
N215        H219   1.048       .  S
N215        H220   1.044       .  S
N218        H221   1.044       .  S
N218        H222   1.048       .  S
C223        C224   1.407       .  A
C223        C228   1.411       .  A
C223        H230   1.083       .  S
C224        C225   1.413       .  A
C225        C226   1.412       .  A
C225        N232   1.432       .  S
C226        C227   1.410       .  A
C226        H231   1.084       .  S
C227        C228   1.415       .  A
C228        N229   1.437       .  S
N229        H233   1.045       .  S
N229        H234   1.046       .  S
N232        H235   1.046       .  S
N232        H236   1.046       .  S
C237        C238   1.408       .  A
C237        C242   1.407       .  A
C237        H244   1.083       .  S
C238        C239   1.415       .  A
C239        C240   1.415       .  A
C239        N246   1.432       .  S
C240        C241   1.409       .  A
C240        H245   1.084       .  S
C241        C242   1.410       .  A
C242        N243   1.432       .  S
N243        H247   1.045       .  S
N243        H248   1.046       .  S
N246        H249   1.047       .  S
N246        H250   1.045       .  S
C251        C252   1.404       .  A
C251        C256   1.407       .  A
C251        H258   1.084       .  S
C252        C909   1.412       .  A
C253        C254   1.406       .  A
C253        C908   1.412       .  A
C253        N260   1.433       .  S
C254        C255   1.407   1_565  A
C254        H259   1.084   1_565  S
C255        C912   1.414   1_545  A
C256        C911   1.413       .  A
C256        N257   1.432       .  S
N257        H261   1.045       .  S
N257        H262   1.046   1_554  S
N260        H263   1.046       .  S
N260        H264   1.045       .  S
C265        C266   1.407       .  A
C265        C270   1.413       .  A
C265        H272   1.083       .  S
C266        C267   1.415       .  A
C267        C268   1.407       .  A
C267        N274   1.438       .  S
C268        C269   1.406       .  A
C268        H273   1.083       .  S
C269        C270   1.416       .  A
C270        N271   1.437       .  S
N271        H275   1.045       .  S
N271        H276   1.046       .  S
N274        H277   1.043       .  S
N274        H278   1.048       .  S
C279        C280   1.408       .  A
C279        C284   1.413       .  A
C279        H286   1.083       .  S
C280        C281   1.414       .  A
C281        C282   1.409       .  A
C281        N288   1.438       .  S
C282        C283   1.406       .  A
C282        H287   1.084       .  S
C283        C284   1.411       .  A
C284        N285   1.437       .  S
N285        H289   1.045       .  S
N285        H290   1.046   1_556  S
N288        H292   1.045       .  S
N288       H1603   1.046       .  S
H291       N1600   1.046       .  S
C293        C294   1.404       .  A
C293        C298   1.406       .  A
C293        H300   1.084       .  S
C294        C295   1.409       .  A
C295        C296   1.406       .  A
C295        N302   1.438       .  S
C296        C297   1.406       .  A
C296        H301   1.084       .  S
C297        C829   1.482       .  S
C297        C298   1.412       .  A
C298        N299   1.437       .  S
N299        H303   1.045       .  S
N299        H960   1.046       .  S
N302        H305   1.046   1_554  S
N302        H306   1.046       .  S
H304        N955   1.044       .  S
C307        C308   1.407       .  A
C307        C312   1.415       .  A
C307        H314   1.084       .  S
C308        C309   1.422       .  A
C309        C310   1.401       .  A
C309        N316   1.433       .  S
C310        C311   1.402       .  A
C310        H315   1.084       .  S
C311        C312   1.420       .  A
C312        N313   1.438       .  S
N313        H317   1.045       .  S
N313        H318   1.046       .  S
N316        H319   1.045       .  S
N316        H320   1.045       .  S
C321        C322   1.405       .  A
C321        C326   1.406       .  A
C321        H328   1.084       .  S
C322        C323   1.409       .  A
C323        C324   1.407       .  A
C323        N330   1.438       .  S
C324        C325   1.406       .  A
C324        H329   1.084       .  S
C325        C326   1.411       .  A
C326        N327   1.438       .  S
N327        H331   1.046       .  S
N327        H332   1.045       .  S
N330        H333   1.045   1_554  S
N330        H334   1.047       .  S
C335        C336   1.404       .  A
C335        C340   1.412       .  A
C335        H342   1.083       .  S
C336        C337   1.413       .  A
C337        C338   1.403       .  A
C337        N344   1.433       .  S
C338        C339   1.401       .  A
C338        H343   1.084       .  S
C339        C340   1.418       .  A
C340        N341   1.438       .  S
N341        H345   1.041       .  S
N341        H346   1.050       .  S
N344        H347   1.046       .  S
N344        H348   1.046       .  S
C349        C350   1.408       .  A
C349        C354   1.414       .  A
C349        H356   1.084       .  S
C350        C351   1.412       .  A
C351        C352   1.412       .  A
C351        N358   1.438       .  S
C352        C353   1.410       .  A
C352        H357   1.083       .  S
C353        C354   1.416       .  A
C354        N355   1.437       .  S
N355        H359   1.045       .  S
N355        H360   1.046       .  S
N358        H361   1.045       .  S
N358        H362   1.046       .  S
C363        C368   1.411       .  A
C363       C1676   1.406       .  A
C363        H370   1.083   1_556  S
C364        C365   1.413       .  A
C364       C1675   1.405       .  A
C365        C366   1.408   1_455  A
C365        N372   1.438       .  S
C366       C1679   1.408       .  A
C366        H371   1.083       .  S
C367        C368   1.415       .  A
C367       C1678   1.408       .  A
C368        N369   1.437   1_556  S
N369        H373   1.047       .  S
N369        H374   1.045       .  S
N372        H375   1.051       .  S
N372        H376   1.040       .  S
C377        C382   1.408   1_655  A
C377       C1690   1.405       .  A
C377        H384   1.084       .  S
C378        C379   1.413       .  A
C378       C1689   1.406       .  A
C379        C380   1.405       .  A
C379        N386   1.433       .  S
C380       C1693   1.405       .  A
C380        H385   1.084       .  S
C381        C382   1.414       .  A
C381       C1692   1.409       .  A
C382        N383   1.431       .  S
N383        H387   1.044       .  S
N383        H388   1.047       .  S
N386        H389   1.046       .  S
N386        H390   1.045       .  S
C391        C392   1.406       .  A
C391        C396   1.413       .  A
C391        H398   1.083       .  S
C392        C393   1.413       .  A
C393        C394   1.404       .  A
C393        N400   1.433       .  S
C394        C395   1.400       .  A
C394        H399   1.084       .  S
C395        C396   1.413       .  A
C396        N397   1.438       .  S
N397        H401   1.045       .  S
N397        H402   1.046       .  S
N400        H403   1.045       .  S
N400        H404   1.046       .  S
C405        C406   1.399       .  A
C405        C410   1.403       .  A
C405        H412   1.084       .  S
C406        C407   1.412       .  A
C407        C408   1.408       .  A
C407        N414   1.438       .  S
C408        C409   1.404       .  A
C408        H413   1.083       .  S
C409        C410   1.414       .  A
C410        N411   1.433       .  S
N411        H415   1.045       .  S
N411        H416   1.046       .  S
N414        H417   1.048       .  S
N414        H418   1.043       .  S
C419        C420   1.402       .  A
C419        C424   1.406       .  A
C419        H426   1.084       .  S
C420        C421   1.417       .  A
C421        C422   1.414       .  A
C421        N428   1.433       .  S
C422        C423   1.409       .  A
C422        H427   1.084       .  S
C423        C424   1.417       .  A
C424        N425   1.432       .  S
N425        H429   1.046       .  S
N425        H430   1.046       .  S
N428        H431   1.045       .  S
N428        H432   1.046       .  S
C433        C434   1.407       .  A
C433        C438   1.411       .  A
C433        H440   1.084       .  S
C434        C435   1.409       .  A
C435        C436   1.407       .  A
C435        N442   1.438       .  S
C436        C437   1.406       .  A
C436        H441   1.084       .  S
C437        C712   1.487   1_545  S
C437        C438   1.413       .  A
C438       N1095   1.438       .  S
N439       C1094   1.433       .  S
N439        H443   1.046       .  S
N439        H444   1.045       .  S
N442        H445   1.046       .  S
N442        H446   1.046       .  S
C447        C448   1.406       .  A
C447        C452   1.407       .  A
C447        H454   1.084       .  S
C448        C449   1.411       .  A
C449        C450   1.410       .  A
C449        N456   1.437       .  S
C450        C451   1.407       .  A
C450        H455   1.084       .  S
C451        C452   1.411       .  A
C452        N453   1.438       .  S
N453        H457   1.045       .  S
N453        H458   1.046       .  S
N456        H459   1.045       .  S
N456        H460   1.046       .  S
C461        C462   1.404       .  A
C461        C466   1.411       .  A
C461        H468   1.084       .  S
C462        C463   1.412       .  A
C463        C464   1.408       .  A
C463        N470   1.432       .  S
C464        C465   1.406       .  A
C464        H469   1.084       .  S
C465        C466   1.417       .  A
C466        N467   1.432       .  S
N467        H471   1.046       .  S
N467        H472   1.045       .  S
N470        H473   1.046       .  S
N470        H474   1.045       .  S
C475        C480   1.405   1_455  A
C475       C1132   1.407       .  A
C475        H482   1.083       .  S
C476       C1131   1.408       .  A
C476       C1789   1.417       .  A
C477        C478   1.410       .  A
C477       C1788   1.414       .  A
C477        N484   1.432       .  S
C478       C1135   1.406       .  A
C478        H483   1.084       .  S
C479       C1134   1.404       .  A
C479       C1792   1.411   1_565  A
C480       C1791   1.413       .  A
C480        N481   1.438   1_565  S
N481        H485   1.047       .  S
N481       H1798   1.043       .  S
N484        H488   1.045       .  S
N484       H1799   1.046       .  S
H486       N1793   1.045       .  S
H487       N1796   1.046       .  S
C489        C490   1.408       .  A
C489        C494   1.412       .  A
C489        H496   1.084       .  S
C490        C491   1.408       .  A
C491        C492   1.404       .  A
C491        N498   1.432       .  S
C492        C493   1.406       .  A
C492        H497   1.084       .  S
C493        C494   1.413       .  A
C494        N495   1.437       .  S
N495        H499   1.046       .  S
N495        H500   1.045       .  S
N498        H501   1.046       .  S
N498        H502   1.045       .  S
C503        C504   1.402       .  A
C503        C508   1.405       .  A
C503        H510   1.084       .  S
C504        C505   1.413       .  A
C505        C506   1.409       .  A
C505        N512   1.432       .  S
C506        C507   1.402       .  A
C506        H511   1.084       .  S
C507        C508   1.412       .  A
C508        N509   1.433       .  S
N509        H513   1.046       .  S
N509        H514   1.045       .  S
N512        H515   1.046       .  S
N512        H516   1.045       .  S
C517        C518   1.402       .  A
C517        C522   1.401       .  A
C517        H524   1.084       .  S
C518        C519   1.411       .  A
C519        C520   1.407       .  A
C519        N526   1.438       .  S
C520        C521   1.402       .  A
C520        H525   1.084       .  S
C521        C522   1.418       .  A
C522        N523   1.433       .  S
N523        H527   1.044       .  S
N523        H528   1.046       .  S
N526        H529   1.046       .  S
N526        H530   1.045       .  S
C531        C532   1.409       .  A
C531        C536   1.409       .  A
C531        H538   1.084       .  S
C532        C533   1.411       .  A
C533        C534   1.407       .  A
C533        N540   1.437       .  S
C534        C535   1.404       .  A
C534        H539   1.084       .  S
C535        C536   1.409       .  A
C536        N537   1.438       .  S
N537        H541   1.041       .  S
N537        H542   1.050       .  S
N540        H543   1.048       .  S
N540        H544   1.043       .  S
C545        C546   1.407       .  A
C545       C1206   1.401       .  A
C545        H552   1.084       .  S
C546        C547   1.412       .  A
C547        C548   1.407       .  A
C547        N554   1.432       .  S
C548       C1205   1.406       .  A
C548        H553   1.084       .  S
C549        C550   1.411       .  A
C549       C1204   1.408       .  A
C550       C1201   1.401   1_545  A
C550        N551   1.433       .  S
N551        H555   1.046       .  S
N551        H556   1.045       .  S
N554        H557   1.045       .  S
N554        H558   1.046       .  S
C559        C560   1.409       .  A
C559        C564   1.413       .  A
C559        H566   1.084       .  S
C560        C561   1.409       .  A
C561        C562   1.403       .  A
C561        N568   1.432       .  S
C562        C563   1.403       .  A
C562        H567   1.084       .  S
C563        C564   1.412       .  A
C564        N565   1.438       .  S
N565        H569   1.046       .  S
N565        H570   1.045       .  S
N568        H571   1.046       .  S
N568        H572   1.045       .  S
C573        C574   1.405       .  A
C573        C578   1.409       .  A
C573        H580   1.084       .  S
C574        C575   1.408       .  A
C575        C576   1.409       .  A
C575        N582   1.437       .  S
C576        C577   1.410       .  A
C576        H581   1.084       .  S
C577        C578   1.414       .  A
C578        N579   1.437       .  S
N579        H583   1.046       .  S
N579       H1896   1.045       .  S
N582        H585   1.044       .  S
N582        H586   1.047       .  S
H584       N1891   1.046       .  S
C587        C588   1.405       .  A
C587        C592   1.412       .  A
C587        H594   1.083       .  S
C588        C589   1.419       .  A
C589        C590   1.413       .  A
C589        N596   1.432       .  S
C590        C591   1.405       .  A
C590        H595   1.084       .  S
C591        C592   1.417       .  A
C592        N593   1.432       .  S
N593        H597   1.046       .  S
N593        H598   1.045       .  S
N596        H599   1.046       .  S
N596        H600   1.045       .  S
C601        C602   1.410       .  A
C601        C606   1.408       .  A
C601        H608   1.084       .  S
C602        C603   1.410       .  A
C603        C604   1.405       .  A
C603        N610   1.432       .  S
C604        C605   1.404       .  A
C604        H609   1.084       .  S
C605        C606   1.408       .  A
C606        N607   1.432       .  S
N607        H611   1.047       .  S
N607        H612   1.045       .  S
N610        H613   1.045       .  S
N610        H614   1.046       .  S
C615        C616   1.402       .  A
C615        C620   1.405       .  A
C615        H622   1.084       .  S
C616        C617   1.415       .  A
C617        C618   1.408       .  A
C617        N624   1.438       .  S
C618        C619   1.402       .  A
C618        H623   1.084       .  S
C619        C620   1.410       .  A
C620        N621   1.433       .  S
N621        H625   1.045       .  S
N621        H626   1.046       .  S
N624        H627   1.044       .  S
N624        H628   1.047       .  S
C629        C630   1.406       .  A
C629        C634   1.408       .  A
C629        H636   1.084       .  S
C630        C631   1.424       .  A
C631        C632   1.405       .  A
C631        N638   1.433       .  S
C632        C633   1.404       .  A
C632        H637   1.084       .  S
C633        C634   1.413       .  A
C634        N635   1.432       .  S
N635        H639   1.048       .  S
N635        H640   1.043       .  S
N638        H641   1.044       .  S
N638        H642   1.046       .  S
C643        C644   1.405       .  A
C643       C1304   1.404       .  A
C643        H650   1.084       .  S
C644       C1957   1.413       .  A
C645        C646   1.410   1_655  A
C645       C1956   1.414       .  A
C645        N652   1.432       .  S
C646       C1303   1.408       .  A
C646        H651   1.084       .  S
C647       C1302   1.406       .  A
C647       C1960   1.413       .  A
C648       C1299   1.405   1_545  A
C648       C1959   1.411       .  A
C648        N649   1.433       .  S
N649        H653   1.044       .  S
N649        H654   1.047       .  S
N652        H655   1.046   1_655  S
N652        H656   1.045       .  S
O657        C660   1.271       .  A
O657       Cd662   2.506       .  S
C658        O667   1.263       .  A
C658        O663   1.271       .  A
C658       C1272   1.483       .  S
O659       C1977   1.272       .  A
O659       Cd662   2.489       .  S
C660        O668   1.266       .  A
C660       C1300   1.493       .  S
C661        O666   1.270       .  A
C661        O664   1.264       .  A
C661       C1286   1.497       .  S
Cd662       O669   2.407       .  S
Cd662       O668   2.460       .  S
Cd662       O667   2.454       .  S
Cd662       O663   2.510       .  S
Cd662       O666   2.503       .  S
Cd662       O664   2.465       .  S
C665       O1971   1.271   1_455  A
C665       O1981   1.263       .  A
C665       C1258   1.473       .  S
O669       C1977   1.265       .  A
O670        C673   1.271       .  A
O670       Cd675   2.491       .  S
C671        O680   1.264       .  A
C671        O676   1.271       .  A
C671       C1219   1.473       .  S
O672       C1990   1.274       .  A
O672       Cd675   2.534   1_655  S
C673        O681   1.268       .  A
C673       C1303   1.494       .  S
C674        O679   1.274       .  A
C674        O677   1.265       .  A
C674       C1244   1.495       .  S
Cd675       O682   2.421   1_455  S
Cd675       O681   2.441       .  S
Cd675       O680   2.416       .  S
Cd675       O676   2.484       .  S
Cd675       O679   2.512       .  S
Cd675       O677   2.473       .  S
C678       O1984   1.273       .  A
C678       O1994   1.263       .  A
C678       C1233   1.485       .  S
O682       C1990   1.263       .  A
O683        C686   1.270       .  A
O683       Cd688   2.461       .  S
C684        O693   1.262       .  A
C684        O689   1.270       .  A
C684       C1177   1.485       .  S
O685        C691   1.274       .  A
O685       Cd688   2.495       .  S
C686        O694   1.267       .  A
C686       C1205   1.486       .  S
C687        O692   1.273       .  A
C687        O690   1.264       .  A
C687       C1247   1.501       .  S
Cd688       O695   2.424       .  S
Cd688       O694   2.447       .  S
Cd688       O693   2.448       .  S
Cd688       O689   2.513       .  S
Cd688       O692   2.547       .  S
Cd688       O690   2.439       .  S
C691        O695   1.263       .  A
C691       C1188   1.483       .  S
O696        C699   1.272       .  A
O696       Cd701   2.518       .  S
C697        O706   1.261       .  A
C697        O702   1.271       .  A
C697       C1149   1.481       .  S
O698        C704   1.269       .  A
O698       Cd701   2.484       .  S
C699        O707   1.266       .  A
C699       C1202   1.491       .  S
C700        O705   1.268       .  A
C700        O703   1.266       .  A
C700       C1289   1.485       .  S
Cd701       O708   2.440       .  S
Cd701       O707   2.424       .  S
Cd701       O706   2.402       .  S
Cd701       O702   2.526       .  S
Cd701       O705   2.488       .  S
Cd701       O703   2.477       .  S
C704        O708   1.264       .  A
C704       C1160   1.478       .  S
O709        C712   1.263       .  A
O709       Cd714   2.430       .  S
C710        O719   1.271       .  A
C710        O715   1.266       .  A
C710       C1118   1.499       .  S
O711        C717   1.262       .  A
O711       Cd714   2.424       .  S
C712        O720   1.271       .  A
C713        O718   1.271       .  A
C713        O716   1.267       .  A
C713       C1132   1.500       .  S
Cd714       O721   2.509       .  S
Cd714       O720   2.525       .  S
Cd714       O719   2.530       .  S
Cd714       O715   2.493       .  S
Cd714       O718   2.537       .  S
Cd714       O716   2.443       .  S
C717        O721   1.272       .  A
C717       C1104   1.478       .  S
O722        C725   1.272       .  A
C723        O732   1.264       .  A
C723        O728   1.271       .  A
C723       C1079   1.501       .  S
O724        C730   1.269       .  A
O724       Cd727   2.526       .  S
C725       C1065   1.482       .  S
C726        O731   1.271       .  A
C726        O729   1.266       .  A
C726       C1135   1.487       .  S
Cd727       O734   2.470       .  S
Cd727       O733   2.411       .  S
Cd727       O732   2.455       .  S
Cd727       O728   2.532       .  S
Cd727       O731   2.500       .  S
Cd727       O729   2.455       .  S
C730        O734   1.262       .  A
C730       C1048   1.490       .  S
O735        C738   1.271       .  A
O735       Cd740   2.502       .  S
C736        O745   1.265       .  A
C736        O741   1.271       .  A
C736       C1076   1.499       .  S
O737        C743   1.270       .  A
O737       Cd740   2.517       .  S
C738        O746   1.262       .  A
C738       C1146   1.483       .  S
C739        O744   1.271       .  A
C739        O742   1.266       .  A
C739       C1034   1.500       .  S
Cd740       O747   2.434       .  S
Cd740       O746   2.457       .  S
Cd740       O745   2.497       .  S
Cd740       O741   2.545       .  S
Cd740       O744   2.525       .  S
Cd740       O742   2.445       .  S
C743        O747   1.263       .  A
C743       C1191   1.482       .  S
O748        C751   1.273       .  A
O748       Cd753   2.507       .  S
C749        O758   1.265       .  A
C749        O754   1.272       .  A
C749       C1121   1.502       .  S
O750        C756   1.271       .  A
O750       Cd753   2.519       .  S
C751        O759   1.265       .  A
C751       C1174   1.482       .  S
C752        O757   1.271       .  A
C752        O755   1.266       .  A
C752       C1037   1.497       .  S
Cd753       O760   2.401       .  S
Cd753       O759   2.429       .  S
Cd753       O758   2.479       .  S
Cd753       O754   2.519       .  S
Cd753       O757   2.531       .  S
Cd753       O755   2.435       .  S
C756        O760   1.261       .  A
C756       C1163   1.479       .  S
O761        C764   1.270       .  A
O761       Cd766   2.482       .  S
C762        O771   1.262   1_554  A
C762        O767   1.270   1_554  A
C762        C978   1.482       .  S
O763       C2081   1.271       .  A
O763       Cd766   2.504       .  S
C764        O772   1.268       .  A
C764       C1023   1.498       .  S
C765        O770   1.270       .  A
C765        O768   1.265       .  A
C765       C1006   1.496       .  S
Cd766       O773   2.420       .  S
Cd766       O772   2.485       .  S
Cd766       O771   2.432       .  S
Cd766       O767   2.520       .  S
Cd766       O770   2.502       .  S
Cd766       O768   2.472       .  S
C769       O2075   1.272   1_455  A
C769       O2085   1.264       .  A
C769        C992   1.483       .  S
O773       C2081   1.262       .  A
O774        C777   1.271       .  A
O774       Cd779   2.481       .  S
C775        O784   1.262   1_554  A
C775        O780   1.271       .  A
C775        C950   1.479       .  S
O776       C2094   1.270   1_455  A
O776       Cd779   2.506       .  S
C777        O785   1.267       .  A
C777       C1020   1.495       .  S
C778        O783   1.272       .  A
C778        O781   1.264       .  A
C778        C967   1.494       .  S
Cd779       O786   2.451   1_455  S
Cd779       O785   2.458       .  S
Cd779       O784   2.417       .  S
Cd779       O780   2.515   1_556  S
Cd779       O783   2.509       .  S
Cd779       O781   2.464       .  S
C782       O2088   1.268       .  A
C782       O2098   1.265       .  A
C782        C936   1.488       .  S
O786       C2094   1.264       .  A
O787        C790   1.271       .  A
O787       Cd792   2.484       .  S
C788        O797   1.262       .  A
C788        O793   1.272       .  A
C788       C1062   1.482       .  S
O789        C795   1.274       .  A
O789       Cd792   2.504       .  S
C790        O798   1.266       .  A
C790        C922   1.492       .  S
C791        O796   1.272       .  A
C791        O794   1.265       .  A
C791       C1009   1.494       .  S
Cd792       O799   2.423       .  S
Cd792       O798   2.450       .  S
Cd792       O797   2.407       .  S
Cd792       O793   2.516       .  S
Cd792       O796   2.517       .  S
Cd792       O794   2.455       .  S
C795        O799   1.265       .  A
C795       C1107   1.484       .  S
O800        C803   1.270       .  A
O800       Cd805   2.472       .  S
C801        O810   1.263       .  A
C801        O806   1.270       .  A
C801       C1090   1.478       .  S
O802        C808   1.273       .  A
O802       Cd805   2.526       .  S
C803        O811   1.267       .  A
C803        C925   1.481       .  S
C804        O809   1.274       .  A
C804        O807   1.264       .  A
C804        C964   1.498       .  S
Cd805       O812   2.448       .  S
Cd805       O811   2.434       .  S
Cd805       O810   2.407       .  S
Cd805       O806   2.517       .  S
Cd805       O809   2.520       .  S
Cd805       O807   2.442       .  S
C808        O812   1.264       .  A
C808       C1051   1.489       .  S
O813        C816   1.272       .  A
C814        O823   1.264       .  A
C814        O819   1.270       .  A
C814        C897   1.486       .  S
O815        C821   1.271       .  A
O815       Cd818   2.518       .  S
C816        C981   1.485       .  S
C817        O822   1.270       .  A
C817        O820   1.266       .  A
C817        C911   1.492       .  S
Cd818       O825   2.428       .  S
Cd818       O824   2.416       .  S
Cd818       O823   2.458       .  S
Cd818       O819   2.505       .  S
Cd818       O822   2.484       .  S
Cd818       O820   2.455       .  S
C821        O825   1.263       .  A
C821        C939   1.484   1_554  S
O826        C829   1.270   1_565  A
O826       Cd831   2.492       .  S
C827        O836   1.265       .  A
C827        O832   1.270       .  A
C827        C880   1.495       .  S
O828        C834   1.271       .  A
O828       Cd831   2.538       .  S
C829        O837   1.265       .  A
C830        O835   1.271       .  A
C830        O833   1.267       .  A
C830        C908   1.494       .  S
Cd831       O838   2.434       .  S
Cd831       O837   2.433   1_565  S
Cd831       O836   2.451       .  S
Cd831       O832   2.529       .  S
Cd831       O835   2.511       .  S
Cd831       O833   2.458       .  S
C834        O838   1.262       .  A
C834        C995   1.488       .  S
O839        C842   1.273       .  A
O839       Cd844   2.515       .  S
C840        O849   1.265       .  A
C840        O845   1.271       .  A
C840        C894   1.500       .  S
O841        C847   1.269       .  A
O841       Cd844   2.508       .  S
C842        O850   1.264       .  A
C842       C1275   1.483       .  S
C843        O848   1.270       .  A
C843        O846   1.267       .  A
C843        C866   1.492       .  S
Cd844       O851   2.447       .  S
Cd844       O850   2.425       .  S
Cd844       O849   2.485       .  S
Cd844       O845   2.518       .  S
Cd844       O848   2.502       .  S
Cd844       O846   2.438       .  S
C847        O851   1.262       .  A
C847       C1230   1.481       .  S
O852        C855   1.271       .  A
O852       Cd857   2.503       .  S
C853        O862   1.264       .  A
C853        O858   1.269       .  A
C853        C883   1.494       .  S
O854        C860   1.270       .  A
O854       Cd857   2.487       .  S
C855        O863   1.264       .  A
C855       C1216   1.481       .  S
C856        O861   1.271       .  A
C856        O859   1.265       .  A
C856        C869   1.489       .  S
Cd857       O864   2.409       .  S
Cd857       O863   2.416       .  S
Cd857       O862   2.472       .  S
Cd857       O858   2.498       .  S
Cd857       O861   2.512       .  S
Cd857       O859   2.426       .  S
C860        O864   1.262       .  A
C860       C1261   1.473       .  S
C865        C866   1.404       .  A
C865        C870   1.399       .  A
C865        H872   1.084       .  S
C866        C867   1.419       .  A
C867        C868   1.415       .  A
C867        N874   1.437       .  S
C868        C869   1.407       .  A
C868        H873   1.084       .  S
C869        C870   1.410       .  A
C870        N871   1.433       .  S
N871        H875   1.045       .  S
N871        H876   1.046       .  S
N874        H877   1.040       .  S
N874        H878   1.052       .  S
C879        C880   1.407       .  A
C879        C884   1.408       .  A
C879        H886   1.083       .  S
C880        C881   1.412       .  A
C881        C882   1.410       .  A
C881        N888   1.432       .  S
C882        C883   1.409       .  A
C882        H887   1.084       .  S
C883        C884   1.413       .  A
C884        N885   1.437       .  S
N885        H889   1.045       .  S
N885        H890   1.046       .  S
N888        H891   1.046       .  S
N888        H892   1.046       .  S
C893        C894   1.411       .  A
C893        C898   1.409       .  A
C893        H900   1.083       .  S
C894        C895   1.414       .  A
C895        C896   1.408       .  A
C895        N902   1.431       .  S
C896        C897   1.404       .  A
C896        H901   1.084       .  S
C897        C898   1.408       .  A
C898        N899   1.433       .  S
N899        H903   1.045       .  S
N899        H904   1.046       .  S
N902        H905   1.046       .  S
N902        H906   1.045       .  S
C907        C908   1.407       .  A
C907        C912   1.412       .  A
C907        H914   1.084       .  S
C909        C910   1.405       .  A
C909        N916   1.433       .  S
C910        C911   1.407       .  A
C910        H915   1.084       .  S
C912        N913   1.432   1_565  S
N913        H917   1.047   1_554  S
N913        H918   1.044   1_544  S
N916        H919   1.047       .  S
N916        H920   1.045       .  S
C921        C922   1.407       .  A
C921        C926   1.409       .  A
C921        H928   1.083       .  S
C922        C923   1.415       .  A
C923        C924   1.402       .  A
C923        N930   1.433       .  S
C924        C925   1.402       .  A
C924        H929   1.084       .  S
C925        C926   1.413       .  A
C926        N927   1.438       .  S
N927        H931   1.043       .  S
N927        H932   1.048       .  S
N930        H933   1.047       .  S
N930        H934   1.045       .  S
C935        C936   1.407       .  A
C935        C940   1.408       .  A
C935        H942   1.084       .  S
C936        C937   1.414       .  A
C937        C938   1.407       .  A
C937        N944   1.438       .  S
C938        C939   1.406       .  A
C938        H943   1.084       .  S
C939        C940   1.410       .  A
C940        N941   1.437       .  S
N941        H945   1.045       .  S
N941        H946   1.046   1_556  S
N944       H2259   1.045       .  S
N944        H948   1.046       .  S
H947       N2256   1.045       .  S
C949        C950   1.404       .  A
C949        C954   1.405       .  A
C949        H956   1.084       .  S
C950        C951   1.410       .  A
C951        C952   1.408       .  A
C951        N958   1.437       .  S
C952        C953   1.407       .  A
C952        H957   1.084       .  S
C953        C954   1.412       .  A
C954        N955   1.438       .  S
N955        H959   1.048       .  S
N958        H961   1.045       .  S
N958        H962   1.046       .  S
C963        C964   1.406       .  A
C963        C968   1.412       .  A
C963        H970   1.083       .  S
C964        C965   1.423       .  A
C965        C966   1.402       .  A
C965        N972   1.432       .  S
C966        C967   1.402       .  A
C966        H971   1.084       .  S
C967        C968   1.418       .  A
C968        N969   1.438       .  S
N969        H973   1.045       .  S
N969        H974   1.046       .  S
N972        H975   1.044       .  S
N972        H976   1.046       .  S
C977        C978   1.405       .  A
C977        C982   1.408       .  A
C977        H984   1.084       .  S
C978        C979   1.410       .  A
C979        C980   1.409       .  A
C979        N986   1.438       .  S
C980        C981   1.407       .  A
C980        H985   1.084       .  S
C981        C982   1.412       .  A
C982        N983   1.437       .  S
N983        H987   1.045       .  S
N983        H988   1.046       .  S
N986        H989   1.046   1_554  S
N986        H990   1.046       .  S
C991        C992   1.402       .  A
C991        C996   1.409       .  A
C991        H998   1.084       .  S
C992        C993   1.411       .  A
C993        C994   1.408       .  A
C993       N1000   1.432       .  S
C994        C995   1.404   1_556  A
C994        H999   1.084       .  S
C995        C996   1.416   1_554  A
C996        N997   1.438   1_556  S
N997       H1001   1.044   1_554  S
N997       H1002   1.047   1_554  S
N1000      H1003   1.045       .  S
N1000      H1004   1.046       .  S
C1005      C1006   1.409       .  A
C1005      C1010   1.411       .  A
C1005      H1012   1.083       .  S
C1006      C1007   1.414       .  A
C1007      C1008   1.409       .  A
C1007      N1014   1.438       .  S
C1008      C1009   1.407       .  A
C1008      H1013   1.083       .  S
C1009      C1010   1.412       .  A
C1010      N1011   1.438       .  S
N1011      H1015   1.045       .  S
N1011      H1016   1.046       .  S
N1014      H1017   1.045       .  S
N1014      H1018   1.046       .  S
C1019      C2332   1.402       .  A
C1019      C1024   1.410       .  A
C1019      H1026   1.083   1_556  S
C1020      C2331   1.408       .  A
C1020      C1021   1.417       .  A
C1021      C1022   1.405   1_455  A
C1021      N1028   1.438       .  S
C1022      C2335   1.403       .  A
C1022      H1027   1.084       .  S
C1023      C2334   1.410       .  A
C1023      C1024   1.417       .  A
C1024      N1025   1.437   1_556  S
N1025      H1029   1.046       .  S
N1025      H1030   1.045       .  S
N1028      H1031   1.044       .  S
N1028      H1032   1.047   1_455  S
C1033      C2346   1.410       .  A
C1033      C1038   1.415   1_655  A
C1033      H1040   1.084       .  S
C1034      C2345   1.409       .  A
C1034      C1035   1.417       .  A
C1035      C1036   1.407       .  A
C1035      N1042   1.435       .  S
C1036      C2349   1.403       .  A
C1036      H1041   1.084       .  S
C1037      C2348   1.406       .  A
C1037      C1038   1.415       .  A
C1038      N1039   1.432       .  S
N1039      H1043   1.045       .  S
N1039      H1044   1.046       .  S
N1042      H1045   1.044       .  S
N1042      H1046   1.047       .  S
C1047      C1048   1.404       .  A
C1047      C1052   1.411       .  A
C1047      H1054   1.084       .  S
C1048      C1049   1.413       .  A
C1049      C1050   1.408       .  A
C1049      N1056   1.432       .  S
C1050      C1051   1.403       .  A
C1050      H1055   1.084       .  S
C1051      C1052   1.416       .  A
C1052      N1053   1.438       .  S
N1053      H1057   1.046       .  S
N1053      H1058   1.046       .  S
N1056      H1059   1.046       .  S
N1056      H1060   1.046       .  S
C1061      C1062   1.403       .  A
C1061      C1066   1.407       .  A
C1061      H1068   1.084       .  S
C1062      C1063   1.415       .  A
C1063      C1064   1.406       .  A
C1063      N1070   1.438       .  S
C1064      C1065   1.401       .  A
C1064      H1069   1.084       .  S
C1065      C1066   1.412       .  A
C1066      N1067   1.432       .  S
N1067      H1071   1.046       .  S
N1067      H1072   1.046       .  S
N1070      H1073   1.045       .  S
N1070      H1074   1.046       .  S
C1075      C1076   1.403       .  A
C1075      C1080   1.410       .  A
C1075      H1082   1.083       .  S
C1076      C1077   1.415       .  A
C1077      C1078   1.412       .  A
C1077      N1084   1.432       .  S
C1078      C1079   1.406       .  A
C1078      H1083   1.084       .  S
C1079      C1080   1.418       .  A
C1080      N1081   1.432       .  S
N1081      H1085   1.046       .  S
N1081      H1086   1.044       .  S
N1084      H1087   1.045       .  S
N1084      H1088   1.046       .  S
C1089      C1090   1.402       .  A
C1089      C1094   1.398       .  A
C1089      H1096   1.084       .  S
C1090      C1091   1.413       .  A
C1091      C1092   1.413       .  A
C1091      N1098   1.438       .  S
C1092      C1093   1.408       .  A
C1092      H1097   1.084       .  S
C1093      C1094   1.405       .  A
N1095      H1099   1.046       .  S
N1095      H1100   1.045       .  S
N1098      H1101   1.046       .  S
N1098      H1102   1.046       .  S
C1103      C1104   1.405       .  A
C1103      C1108   1.408       .  A
C1103      H1110   1.084       .  S
C1104      C1105   1.408       .  A
C1105      C1106   1.407       .  A
C1105      N1112   1.438       .  S
C1106      C1107   1.407       .  A
C1106      H1111   1.084       .  S
C1107      C1108   1.413       .  A
C1108      N1109   1.438       .  S
N1109      H1113   1.046       .  S
N1109      H1114   1.045       .  S
N1112      H1115   1.045       .  S
N1112      H1116   1.045       .  S
C1117      C1118   1.404       .  A
C1117      C1122   1.411       .  A
C1117      H1124   1.084       .  S
C1118      C1119   1.414       .  A
C1119      C1120   1.411       .  A
C1119      N1126   1.432       .  S
C1120      C1121   1.406       .  A
C1120      H1125   1.083       .  S
C1121      C1122   1.418       .  A
C1122      N1123   1.432       .  S
N1123      H1127   1.046       .  S
N1123      H1128   1.045       .  S
N1126      H1129   1.045       .  S
N1126      H1130   1.046       .  S
C1131      C1136   1.402   1_455  A
C1131      H1138   1.084       .  S
C1132      C2445   1.418       .  A
C1133      C2444   1.416       .  A
C1133      C1134   1.410       .  A
C1133      N1140   1.437       .  S
C1134      H1139   1.084       .  S
C1135      C2448   1.410       .  A
C1136      C2447   1.408       .  A
C1136      N1137   1.433       .  S
N1137      H1141   1.046       .  S
N1137      H2454   1.046       .  S
N1140      H2455   1.046       .  S
N1140      H1144   1.045       .  S
H1142      N2449   1.046       .  S
H1143      N2452   1.045       .  S
C1145      C1146   1.408       .  A
C1145      C1150   1.412       .  A
C1145      H1152   1.084       .  S
C1146      C1147   1.410       .  A
C1147      C1148   1.403       .  A
C1147      N1154   1.438       .  S
C1148      C1149   1.404       .  A
C1148      H1153   1.084       .  S
C1149      C1150   1.410       .  A
C1150      N1151   1.437       .  S
N1151      H1155   1.045       .  S
N1151      H1156   1.045       .  S
N1154      H1157   1.047       .  S
N1154      H1158   1.045       .  S
C1159      C1160   1.401       .  A
C1159      C1164   1.402       .  A
C1159      H1166   1.084       .  S
C1160      C1161   1.411       .  A
C1161      C1162   1.407       .  A
C1161      N1168   1.432       .  S
C1162      C1163   1.403       .  A
C1162      H1167   1.084       .  S
C1163      C1164   1.412       .  A
C1164      N1165   1.433       .  S
N1165      H1169   1.046       .  S
N1165      H1170   1.046       .  S
N1168      H1171   1.046       .  S
N1168      H1172   1.046       .  S
C1173      C1174   1.403       .  A
C1173      C1178   1.404       .  A
C1173      H1180   1.084       .  S
C1174      C1175   1.412       .  A
C1175      C1176   1.408       .  A
C1175      N1182   1.437       .  S
C1176      C1177   1.403       .  A
C1176      H1181   1.084       .  S
C1177      C1178   1.419       .  A
C1178      N1179   1.433       .  S
N1179      H1183   1.044       .  S
N1179      H1184   1.045       .  S
N1182      H1185   1.046       .  S
N1182      H1186   1.045       .  S
C1187      C1188   1.408       .  A
C1187      C1192   1.407       .  A
C1187      H1194   1.084       .  S
C1188      C1189   1.411       .  A
C1189      C1190   1.407       .  A
C1189      N1196   1.437       .  S
C1190      C1191   1.405       .  A
C1190      H1195   1.084       .  S
C1191      C1192   1.407       .  A
C1192      N1193   1.432       .  S
N1193      H1197   1.046       .  S
N1193      H1198   1.045       .  S
N1196      H1199   1.046       .  S
N1196      H1200   1.045       .  S
C1201      C1202   1.405       .  A
C1201      H1208   1.084       .  S
C1202      C1203   1.413       .  A
C1203      C1204   1.411   1_565  A
C1203      N1210   1.432       .  S
C1204      H1209   1.084       .  S
C1205      C1206   1.411       .  A
C1206      N1207   1.433       .  S
N1207      H1211   1.045       .  S
N1207      H1212   1.047       .  S
N1210      H1213   1.045       .  S
N1210      H1214   1.046       .  S
C1215      C1216   1.406       .  A
C1215      C1220   1.405       .  A
C1215      H1222   1.084       .  S
C1216      C1217   1.414       .  A
C1217      C1218   1.407       .  A
C1217      N1224   1.438       .  S
C1218      C1219   1.403       .  A
C1218      H1223   1.084       .  S
C1219      C1220   1.408       .  A
C1220      N1221   1.438       .  S
N1221      H1225   1.046       .  S
N1221      H1226   1.045       .  S
N1224      H1227   1.045       .  S
N1224      H1228   1.047       .  S
C1229      C1230   1.407       .  A
C1229      C1234   1.407       .  A
C1229      H1236   1.084       .  S
C1230      C1231   1.409       .  A
C1231      C1232   1.407       .  A
C1231      N1238   1.437       .  S
C1232      C1233   1.407       .  A
C1232      H1237   1.084       .  S
C1233      C1234   1.409       .  A
C1234      N1235   1.432       .  S
N1235      H1239   1.046       .  S
N1235      H2552   1.045       .  S
N1238      H1241   1.045       .  S
N1238      H1242   1.045       .  S
H1240      N2547   1.044       .  S
C1243      C1244   1.400       .  A
C1243      C1248   1.406       .  A
C1243      H1250   1.084       .  S
C1244      C1245   1.416       .  A
C1245      C1246   1.414       .  A
C1245      N1252   1.433       .  S
C1246      C1247   1.408       .  A
C1246      H1251   1.084       .  S
C1247      C1248   1.418       .  A
C1248      N1249   1.432       .  S
N1249      H1253   1.046       .  S
N1249      H1254   1.045       .  S
N1252      H1255   1.045       .  S
N1252      H1256   1.046       .  S
C1257      C1258   1.405       .  A
C1257      C1262   1.405       .  A
C1257      H1264   1.084       .  S
C1258      C1259   1.409       .  A
C1259      C1260   1.404       .  A
C1259      N1266   1.438       .  S
C1260      C1261   1.404       .  A
C1260      H1265   1.084       .  S
C1261      C1262   1.409       .  A
C1262      N1263   1.438       .  S
N1263      H1267   1.046       .  S
N1263      H1268   1.046       .  S
N1266      H1269   1.045       .  S
N1266      H1270   1.046       .  S
C1271      C1272   1.401       .  A
C1271      C1276   1.405       .  A
C1271      H1278   1.084       .  S
C1272      C1273   1.415       .  A
C1273      C1274   1.411       .  A
C1273      N1280   1.437       .  S
C1274      C1275   1.403       .  A
C1274      H1279   1.084       .  S
C1275      C1276   1.411       .  A
C1276      N1277   1.432       .  S
N1277      H1281   1.045       .  S
N1277      H1282   1.046       .  S
N1280      H1283   1.045       .  S
N1280      H1284   1.047       .  S
C1285      C1286   1.408       .  A
C1285      C1290   1.411       .  A
C1285      H1292   1.083       .  S
C1286      C1287   1.423       .  A
C1287      C1288   1.401       .  A
C1287      N1294   1.432       .  S
C1288      C1289   1.401       .  A
C1288      H1293   1.084       .  S
C1289      C1290   1.412       .  A
C1290      N1291   1.438       .  S
N1291      H1295   1.041       .  S
N1291      H1296   1.050       .  S
N1294      H1297   1.046       .  S
N1294      H1298   1.044       .  S
C1299      C1300   1.407       .  A
C1299      H1306   1.084       .  S
C1300      C2613   1.413       .  A
C1301      C2612   1.413       .  A
C1301      C1302   1.410   1_665  A
C1301      N1308   1.432       .  S
C1302      H1307   1.083       .  S
C1303      C2616   1.414       .  A
C1304      C2615   1.413       .  A
C1304      N1305   1.432       .  S
N1305      H1309   1.043       .  S
N1305      H1310   1.048       .  S
N1308      H1311   1.045       .  S
N1308      H1312   1.046       .  S
O1313      C1316   1.270       .  A
O1313     Cd1318   2.511       .  S
C1314      O1323   1.263       .  A
C1314      O1319   1.270       .  A
C1314      C1928   1.491       .  S
O1315     Cd1318   2.519       .  S
C1316      O1324   1.266       .  A
C1316      C1956   1.494       .  S
C1317      O1322   1.271       .  A
C1317      O1320   1.264       .  A
C1317      C1942   1.506       .  S
Cd1318     O1325   2.443   1_655  S
Cd1318     O1324   2.451       .  S
Cd1318     O1323   2.462       .  S
Cd1318     O1319   2.535       .  S
Cd1318     O1322   2.536       .  S
Cd1318     O1320   2.483       .  S
C1321      C1914   1.485       .  S
O1326      C1329   1.270       .  A
O1326     Cd1331   2.481       .  S
C1327      O1336   1.263       .  A
C1327      O1332   1.270       .  A
C1327      C1875   1.474       .  S
O1328     Cd1331   2.517       .  S
C1329      O1337   1.267       .  A
C1329      C1959   1.489       .  S
C1330      O1335   1.274       .  A
C1330      O1333   1.264       .  A
C1330      C1900   1.503       .  S
Cd1331     O1338   2.436       .  S
Cd1331     O1337   2.448       .  S
Cd1331     O1336   2.429       .  S
Cd1331     O1332   2.493       .  S
Cd1331     O1335   2.547       .  S
Cd1331     O1333   2.467       .  S
C1334      C1889   1.494       .  S
O1339      C1342   1.271       .  A
O1339     Cd1344   2.477       .  S
C1340      O1349   1.264       .  A
C1340      O1345   1.271       .  A
C1340      C1833   1.477       .  S
O1341      C1347   1.275       .  A
O1341     Cd1344   2.508       .  S
C1342      O1350   1.269       .  A
C1342      C1861   1.492       .  S
C1343      O1348   1.274       .  A
C1343      O1346   1.266       .  A
C1343      C1903   1.505       .  S
Cd1344     O1351   2.426       .  S
Cd1344     O1350   2.451       .  S
Cd1344     O1349   2.432       .  S
Cd1344     O1345   2.494       .  S
Cd1344     O1348   2.540       .  S
Cd1344     O1346   2.475       .  S
C1347      O1351   1.263       .  A
C1347      C1844   1.482       .  S
O1352      C1355   1.272       .  A
O1352     Cd1357   2.497       .  S
C1353      O1362   1.264       .  A
C1353      O1358   1.272       .  A
C1353      C1805   1.487       .  S
O1354      C1360   1.272       .  A
O1354     Cd1357   2.493       .  S
C1355      O1363   1.265       .  A
C1355      C1858   1.492       .  S
C1356      O1361   1.270       .  A
C1356      O1359   1.266       .  A
C1356      C1945   1.490       .  S
Cd1357     O1364   2.426       .  S
Cd1357     O1363   2.439       .  S
Cd1357     O1362   2.440       .  S
Cd1357     O1358   2.512       .  S
Cd1357     O1361   2.489       .  S
Cd1357     O1359   2.477       .  S
C1360      O1364   1.265       .  A
C1360      C1816   1.482       .  S
O1365      C1368   1.266       .  A
O1365     Cd1370   2.421       .  S
C1366      O1375   1.265       .  A
C1366      O1371   1.269       .  A
C1366      C1774   1.484       .  S
O1367      C1373   1.260       .  A
O1367     Cd1370   2.413       .  S
C1368      O1376   1.272       .  A
C1368      C2405   1.474       .  S
C1369      O1374   1.272       .  A
C1369      O1372   1.267       .  A
C1369      C1788   1.494       .  S
Cd1370     O1377   2.510       .  S
Cd1370     O1376   2.475       .  S
Cd1370     O1375   2.435       .  S
Cd1370     O1371   2.514       .  S
Cd1370     O1374   2.513       .  S
Cd1370     O1372   2.431       .  S
C1373      O1377   1.270       .  A
C1373      C1760   1.474       .  S
O1378      C1381   1.271       .  A
O1378     Cd2039   2.497       .  S
C1379      O1388   1.264       .  A
C1379      O1384   1.271       .  A
C1379      C1735   1.500       .  S
O1380      C1386   1.269       .  A
O1380     Cd1383   2.529       .  S
C1381      O2045   1.263       .  A
C1381      C1721   1.479       .  S
C1382      O1387   1.270       .  A
C1382      O1385   1.267       .  A
C1382      C1791   1.493   1_545  S
Cd1383     O2034   2.494   1_545  S
Cd1383     O1390   2.450       .  S
Cd1383     O1389   2.442   1_545  S
Cd1383     O1388   2.457       .  S
Cd1383     O1384   2.544       .  S
Cd1383     O1387   2.496       .  S
Cd1383     O1385   2.456       .  S
C1386      O1390   1.262       .  A
C1386      C1704   1.483       .  S
O1389      C2037   1.263       .  A
O1391      C1394   1.271       .  A
O1391     Cd1396   2.501       .  S
C1392      O1401   1.263       .  A
C1392      O1397   1.272       .  A
C1392      C1732   1.495       .  S
O1393      C1399   1.269       .  A
O1393     Cd1396   2.518       .  S
C1394      O1402   1.264       .  A
C1394      C1802   1.489       .  S
C1395      O1400   1.270       .  A
C1395      O1398   1.266       .  A
C1395      C1690   1.492       .  S
Cd1396     O1403   2.414       .  S
Cd1396     O1402   2.460       .  S
Cd1396     O1401   2.447       .  S
Cd1396     O1397   2.533       .  S
Cd1396     O1400   2.487       .  S
Cd1396     O1398   2.452       .  S
C1399      O1403   1.262       .  A
C1399      C1847   1.483       .  S
O1404      C1407   1.272       .  A
O1404     Cd1409   2.490       .  S
C1405      O1414   1.265       .  A
C1405      O1410   1.270       .  A
C1405      C1777   1.482       .  S
O1406      C1412   1.271       .  A
O1406     Cd1409   2.521       .  S
C1407      O1415   1.266       .  A
C1407      C1830   1.482       .  S
C1408      O1413   1.272       .  A
C1408      O1411   1.268       .  A
C1408      C1693   1.490       .  S
Cd1409     O1416   2.391       .  S
Cd1409     O1415   2.431       .  S
Cd1409     O1414   2.455       .  S
Cd1409     O1410   2.509       .  S
Cd1409     O1413   2.491       .  S
Cd1409     O1411   2.449       .  S
C1412      O1416   1.260       .  A
C1412      C1819   1.473       .  S
O1417      C1420   1.269       .  A
O1417     Cd1422   2.492       .  S
C1418      O1427   1.264   1_554  A
C1418      O1423   1.272       .  A
C1418      C1634   1.488       .  S
O1419     Cd1422   2.531       .  S
C1420      O1428   1.267       .  A
C1420      C1679   1.497       .  S
C1421      O1426   1.270       .  A
C1421      O1424   1.266       .  A
C1421      C1662   1.499       .  S
Cd1422     O1429   2.426   1_655  S
Cd1422     O1428   2.471       .  S
Cd1422     O1427   2.417       .  S
Cd1422     O1423   2.547   1_556  S
Cd1422     O1426   2.512       .  S
Cd1422     O1424   2.484       .  S
C1425      C1648   1.482       .  S
O1430      C1433   1.269       .  A
O1430     Cd1435   2.495       .  S
C1431      O1440   1.261   1_554  A
C1431      O1436   1.268       .  A
C1431      C1606   1.486       .  S
O1432     Cd1435   2.515       .  S
C1433      O1441   1.267       .  A
C1433      C1676   1.491       .  S
C1434      O1439   1.270       .  A
C1434      O1437   1.264       .  A
C1434      C1623   1.497       .  S
Cd1435     O1442   2.471       .  S
Cd1435     O1441   2.469       .  S
Cd1435     O1440   2.438       .  S
Cd1435     O1436   2.525   1_556  S
Cd1435     O1439   2.523       .  S
Cd1435     O1437   2.497       .  S
C1438      C1592   1.490       .  S
O1443      C1446   1.273       .  A
O1443     Cd1448   2.492       .  S
C1444      O1453   1.265       .  A
C1444      O1449   1.274       .  A
C1444      C1718   1.476       .  S
O1445      C1451   1.274       .  A
O1445     Cd1448   2.476       .  S
C1446      O1454   1.267       .  A
C1446      C1578   1.489       .  S
C1447      O1452   1.273       .  A
C1447      O1450   1.267       .  A
C1447      C1665   1.498       .  S
Cd1448     O1455   2.418       .  S
Cd1448     O1454   2.424       .  S
Cd1448     O1453   2.413       .  S
Cd1448     O1449   2.479       .  S
Cd1448     O1452   2.505       .  S
Cd1448     O1450   2.463       .  S
C1451      O1455   1.265       .  A
C1451      C1763   1.479       .  S
O1456      C1459   1.271       .  A
O1456     Cd1461   2.516       .  S
C1457      O1466   1.263       .  A
C1457      O1462   1.270       .  A
C1457      C1746   1.483       .  S
O1458      C1464   1.274       .  A
O1458     Cd1461   2.515       .  S
C1459      O1467   1.267       .  A
C1459      C1581   1.493       .  S
C1460      O1465   1.272       .  A
C1460      O1463   1.263       .  A
C1460      C1620   1.502       .  S
Cd1461     O1468   2.411       .  S
Cd1461     O1467   2.446       .  S
Cd1461     O1466   2.445       .  S
Cd1461     O1462   2.508       .  S
Cd1461     O1465   2.549       .  S
Cd1461     O1463   2.464       .  S
C1464      O1468   1.264       .  A
C1464      C1707   1.485       .  S
O1469      C1472   1.270       .  A
O1469     Cd2130   2.496       .  S
C1470      O1479   1.266       .  A
C1470      O1475   1.270       .  A
C1470      C1553   1.494       .  S
O1471      C1477   1.272       .  A
O1471     Cd1474   2.526       .  S
C1472      O2136   1.265       .  A
C1472      C1637   1.487       .  S
C1473      O1478   1.271       .  A
C1473      O1476   1.265       .  A
C1473      C1567   1.492       .  S
Cd1474     O2125   2.499   1_545  S
Cd1474     O1481   2.444       .  S
Cd1474     O1480   2.412   1_545  S
Cd1474     O1479   2.459       .  S
Cd1474     O1475   2.504       .  S
Cd1474     O1478   2.499       .  S
Cd1474     O1476   2.443       .  S
C1477      O1481   1.263       .  A
C1477      C1595   1.486   1_554  S
O1480      C2128   1.265       .  A
O1482      C1485   1.272       .  A
O1482     Cd1487   2.514       .  S
C1483      O1492   1.266       .  A
C1483      O1488   1.271       .  A
C1483      C1536   1.492       .  S
O1484      C1490   1.270       .  A
O1484     Cd1487   2.489       .  S
C1485      O1493   1.264       .  A
C1485      C2265   1.484       .  S
C1486      O1491   1.271       .  A
C1486      O1489   1.265       .  A
C1486      C1564   1.493       .  S
Cd1487     O1494   2.436       .  S
Cd1487     O1493   2.415       .  S
Cd1487     O1492   2.458       .  S
Cd1487     O1488   2.506       .  S
Cd1487     O1491   2.513       .  S
Cd1487     O1489   2.425       .  S
C1490      O1494   1.265       .  A
C1490      C1651   1.480       .  S
O1495      C1498   1.273       .  A
O1495     Cd1500   2.522       .  S
C1496      O1505   1.265       .  A
C1496      O1501   1.271       .  A
C1496      C1550   1.502       .  S
O1497      C1503   1.269       .  A
O1497     Cd1500   2.546       .  S
C1498      O1506   1.264       .  A
C1498      C1931   1.487       .  S
C1499      O1504   1.270       .  A
C1499      O1502   1.267       .  A
C1499      C1522   1.493       .  S
Cd1500     O1507   2.456       .  S
Cd1500     O1506   2.454       .  S
Cd1500     O1505   2.490       .  S
Cd1500     O1501   2.531       .  S
Cd1500     O1504   2.492       .  S
Cd1500     O1502   2.442       .  S
C1503      O1507   1.263       .  A
C1503      C1886   1.490       .  S
O1508      C1511   1.271       .  A
O1508     Cd1513   2.483       .  S
C1509      O1518   1.265       .  A
C1509      O1514   1.271       .  A
C1509      C1539   1.493       .  S
O1510      C1516   1.271       .  A
O1510     Cd1513   2.508       .  S
C1511      O1519   1.264       .  A
C1511      C1872   1.478       .  S
C1512      O1517   1.270       .  A
C1512      O1515   1.264       .  A
C1512      C1525   1.486       .  S
Cd1513     O1520   2.431       .  S
Cd1513     O1519   2.400       .  S
Cd1513     O1518   2.430       .  S
Cd1513     O1514   2.524       .  S
Cd1513     O1517   2.502       .  S
Cd1513     O1515   2.417       .  S
C1516      O1520   1.263       .  A
C1516      C1917   1.481       .  S
C1521      C1522   1.406       .  A
C1521      C1526   1.404       .  A
C1521      H1528   1.083       .  S
C1522      C1523   1.416       .  A
C1523      C1524   1.412       .  A
C1523      N1530   1.437       .  S
C1524      C1525   1.405       .  A
C1524      H1529   1.083       .  S
C1525      C1526   1.413       .  A
C1526      N1527   1.439       .  S
N1527      H1531   1.043       .  S
N1527      H1532   1.048       .  S
N1530      H1533   1.048       .  S
N1530      H1534   1.043       .  S
C1535      C1536   1.409       .  A
C1535      C1540   1.409       .  A
C1535      H1542   1.084       .  S
C1536      C1537   1.410       .  A
C1537      C1538   1.404       .  A
C1537      N1544   1.432       .  S
C1538      C1539   1.407       .  A
C1538      H1543   1.084       .  S
C1539      C1540   1.413       .  A
C1540      N1541   1.432       .  S
N1541      H1545   1.045       .  S
N1541      H1546   1.046       .  S
N1544      H1547   1.046       .  S
N1544      H1548   1.045       .  S
C1549      C1550   1.411       .  A
C1549      C1554   1.414       .  A
C1549      H1556   1.083       .  S
C1550      C1551   1.412       .  A
C1551      C1552   1.407       .  A
C1551      N1558   1.431       .  S
C1552      C1553   1.406       .  A
C1552      H1557   1.084       .  S
C1553      C1554   1.415       .  A
C1554      N1555   1.438       .  S
N1555      H1559   1.045       .  S
N1555      H1560   1.046       .  S
N1558      H1561   1.045       .  S
N1558      H1562   1.046       .  S
C1563      C1564   1.406       .  A
C1563      C1568   1.414       .  A
C1563      H1570   1.083       .  S
C1564      C2221   1.413       .  A
C1565      C2220   1.409       .  A
C1565      C1566   1.405       .  A
C1565      N1572   1.433       .  S
C1566      C1567   1.409   1_565  A
C1566      H1571   1.084       .  S
C1567      C2224   1.412       .  A
C1568      C2223   1.417       .  A
C1568      N1569   1.437       .  S
N1569      H1573   1.045       .  S
N1569      H1574   1.046   1_554  S
N1572      H1575   1.045       .  S
N1572      H1576   1.047       .  S
C1577      C1578   1.406       .  A
C1577      C1582   1.413       .  A
C1577      H1584   1.084       .  S
C1578      C1579   1.413       .  A
C1579      C1580   1.405       .  A
C1579      N1586   1.438       .  S
C1580      C1581   1.405       .  A
C1580      H1585   1.083       .  S
C1581      C1582   1.417       .  A
C1582      N1583   1.437       .  S
N1583      H1587   1.047       .  S
N1583      H1588   1.044       .  S
N1586      H1589   1.046       .  S
N1586      H1590   1.045       .  S
C1591      C1592   1.407       .  A
C1591      C1596   1.410       .  A
C1591      H1598   1.084       .  S
C1592      C1593   1.413       .  A
C1593      C1594   1.411       .  A
C1593      N1600   1.437       .  S
C1594      C1595   1.407       .  A
C1594      H1599   1.084       .  S
C1595      C1596   1.410       .  A
C1596      N1597   1.438   1_556  S
N1597      H1601   1.046       .  S
N1597      H1602   1.045       .  S
N1600      H1604   1.045       .  S
C1605      C1606   1.406       .  A
C1605      C1610   1.406       .  A
C1605      H1612   1.084       .  S
C1606      C1607   1.413       .  A
C1607      C1608   1.410       .  A
C1607      N1614   1.438       .  S
C1608      C1609   1.406       .  A
C1608      H1613   1.084       .  S
C1609      C2141   1.483       .  S
C1609      C1610   1.411       .  A
C1610      N1611   1.438       .  S
N1611      H1615   1.046       .  S
N1611      H2272   1.045       .  S
N1614      H1617   1.046       .  S
N1614      H1618   1.045       .  S
H1616      N2267   1.045       .  S
C1619      C1620   1.408       .  A
C1619      C1624   1.417       .  A
C1619      H1626   1.083       .  S
C1620      C1621   1.422       .  A
C1621      C1622   1.403       .  A
C1621      N1628   1.432       .  S
C1622      C1623   1.402       .  A
C1622      H1627   1.084       .  S
C1623      C1624   1.418       .  A
C1624      N1625   1.438       .  S
N1625      H1629   1.046       .  S
N1625      H1630   1.046       .  S
N1628      H1631   1.046       .  S
N1628      H1632   1.044       .  S
C1633      C1634   1.405       .  A
C1633      C1638   1.402       .  A
C1633      H1640   1.084       .  S
C1634      C1635   1.410       .  A
C1635      C1636   1.412       .  A
C1635      N1642   1.431       .  S
C1636      C1637   1.409       .  A
C1636      H1641   1.084       .  S
C1637      C1638   1.410       .  A
C1638      N1639   1.433       .  S
N1639      H1643   1.045       .  S
N1639      H1644   1.047       .  S
N1642      H1645   1.047       .  S
N1642      H1646   1.044       .  S
C1647      C1648   1.404       .  A
C1647      C1652   1.406       .  A
C1647      H1654   1.083       .  S
C1648      C1649   1.411       .  A
C1649      C1650   1.406       .  A
C1649      N1656   1.432       .  S
C1650      C1651   1.402   1_556  A
C1650      H1655   1.084       .  S
C1651      C1652   1.413   1_554  A
C1652      N1653   1.438   1_556  S
N1653      H1657   1.038       .  S
N1653      H1658   1.053   1_554  S
N1656      H1659   1.045       .  S
N1656      H1660   1.046       .  S
C1661      C1662   1.409       .  A
C1661      C1666   1.410       .  A
C1661      H1668   1.084       .  S
C1662      C1663   1.412       .  A
C1663      C1664   1.409       .  A
C1663      N1670   1.432       .  S
C1664      C1665   1.409       .  A
C1664      H1669   1.084       .  S
C1665      C1666   1.412       .  A
C1666      N1667   1.432       .  S
N1667      H1671   1.045       .  S
N1667      H1672   1.046       .  S
N1670      H1673   1.046       .  S
N1670      H1674   1.046       .  S
C1675      C1680   1.411   1_455  A
C1675      H1682   1.083   1_556  S
C1676      C1677   1.413       .  A
C1677      C1678   1.408       .  A
C1677      N1684   1.438       .  S
C1678      H1683   1.083       .  S
C1679      C1680   1.417       .  A
C1680      N1681   1.437   1_556  S
N1681      H1685   1.049       .  S
N1681      H1686   1.043       .  S
N1684      H1687   1.046       .  S
N1684      H1688   1.046       .  S
C1689      C1694   1.408       .  A
C1689      H1696   1.084       .  S
C1690      C1691   1.413       .  A
C1691      C1692   1.408   1_655  A
C1691      N1698   1.433       .  S
C1692      H1697   1.083       .  S
C1693      C1694   1.412       .  A
C1694      N1695   1.432       .  S
N1695      H1699   1.045       .  S
N1695      H1700   1.046       .  S
N1698      H1701   1.042       .  S
N1698      H1702   1.049       .  S
C1703      C1704   1.402       .  A
C1703      C1708   1.409       .  A
C1703      H1710   1.084       .  S
C1704      C1705   1.411       .  A
C1705      C1706   1.407       .  A
C1705      N1712   1.432       .  S
C1706      C1707   1.403       .  A
C1706      H1711   1.084       .  S
C1707      C1708   1.416       .  A
C1708      N1709   1.438       .  S
N1709      H1713   1.046       .  S
N1709      H1714   1.045       .  S
N1712      H1715   1.045       .  S
N1712      H1716   1.046       .  S
C1717      C1718   1.400       .  A
C1717      C1722   1.403       .  A
C1717      H1724   1.084       .  S
C1718      C1719   1.414       .  A
C1719      C1720   1.407       .  A
C1719      N1726   1.438       .  S
C1720      C1721   1.403       .  A
C1720      H1725   1.084       .  S
C1721      C1722   1.410       .  A
C1722      N1723   1.432       .  S
N1723      H1727   1.046       .  S
N1723      H1728   1.046       .  S
N1726      H1729   1.043       .  S
N1726      H1730   1.048       .  S
C1731      C1732   1.403       .  A
C1731      C1736   1.412       .  A
C1731      H1738   1.083       .  S
C1732      C1733   1.415       .  A
C1733      C1734   1.409       .  A
C1733      N1740   1.433       .  S
C1734      C1735   1.405       .  A
C1734      H1739   1.084       .  S
C1735      C1736   1.420       .  A
C1736      N1737   1.438       .  S
N1737      H1741   1.046       .  S
N1737      H1742   1.045       .  S
N1740      H1743   1.045       .  S
N1740      H1744   1.046       .  S
C1745      C1746   1.406       .  A
C1745      C1750   1.406       .  A
C1745      H1752   1.084       .  S
C1746      C1747   1.413       .  A
C1747      C1748   1.408       .  A
C1747      N1754   1.437       .  S
C1748      C1749   1.402       .  A
C1748      H1753   1.084       .  S
C1749      C2024   1.473   1_545  S
C1749      C1750   1.408       .  A
C1750      N2407   1.438   1_545  S
N1751      C2406   1.438       .  S
N1751      H1755   1.046       .  S
N1751      H1756   1.045       .  S
N1754      H1757   1.046       .  S
N1754      H1758   1.045       .  S
C1759      C1760   1.403       .  A
C1759      C1764   1.402       .  A
C1759      H1766   1.084       .  S
C1760      C1761   1.410       .  A
C1761      C1762   1.408       .  A
C1761      N1768   1.438       .  S
C1762      C1763   1.407       .  A
C1762      H1767   1.084       .  S
C1763      C1764   1.407       .  A
C1764      N1765   1.432       .  S
N1765      H1769   1.045       .  S
N1765      H1770   1.046       .  S
N1768      H1771   1.044       .  S
N1768      H1772   1.046       .  S
C1773      C1774   1.402       .  A
C1773      C1778   1.403       .  A
C1773      H1780   1.084       .  S
C1774      C1775   1.415       .  A
C1775      C1776   1.415       .  A
C1775      N1782   1.438       .  S
C1776      C1777   1.406       .  A
C1776      H1781   1.084       .  S
C1777      C1778   1.409       .  A
C1778      N1779   1.438       .  S
N1779      H1783   1.046       .  S
N1779      H1784   1.045       .  S
N1782      H1785   1.045       .  S
N1782      H1786   1.046       .  S
C1787      C2444   1.407       .  A
C1787      C1792   1.404   1_565  A
C1787      H1794   1.083       .  S
C1788      C2443   1.407       .  A
C1789      C1790   1.413   1_455  A
C1789      N1796   1.437       .  S
C1790      C2447   1.406       .  A
C1790      H1795   1.083       .  S
C1791      C2446   1.408       .  A
C1792      N1793   1.438       .  S
N1793      H1797   1.046       .  S
N1796      H1800   1.046       .  S
C1801      C1802   1.408       .  A
C1801      C1806   1.411       .  A
C1801      H1808   1.084       .  S
C1802      C1803   1.413       .  A
C1803      C1804   1.408       .  A
C1803      N1810   1.438       .  S
C1804      C1805   1.405       .  A
C1804      H1809   1.084       .  S
C1805      C1806   1.411       .  A
C1806      N1807   1.437       .  S
N1807      H1811   1.047       .  S
N1807      H1812   1.045       .  S
N1810      H1813   1.045       .  S
N1810      H1814   1.046       .  S
C1815      C1816   1.403       .  A
C1815      C1820   1.403       .  A
C1815      H1822   1.084       .  S
C1816      C1817   1.414       .  A
C1817      C1818   1.406       .  A
C1817      N1824   1.432       .  S
C1818      C1819   1.400       .  A
C1818      H1823   1.084       .  S
C1819      C1820   1.409       .  A
C1820      N1821   1.433       .  S
N1821      H1825   1.045       .  S
N1821      H1826   1.046       .  S
N1824      H1827   1.046       .  S
N1824      H1828   1.045       .  S
C1829      C1830   1.404       .  A
C1829      C1834   1.402       .  A
C1829      H1836   1.084       .  S
C1830      C1831   1.414       .  A
C1831      C1832   1.407       .  A
C1831      N1838   1.437       .  S
C1832      C1833   1.401       .  A
C1832      H1837   1.084       .  S
C1833      C1834   1.415       .  A
C1834      N1835   1.433       .  S
N1835      H1839   1.044       .  S
N1835      H1840   1.045       .  S
N1838      H1841   1.046       .  S
N1838      H1842   1.045       .  S
C1843      C1844   1.408       .  A
C1843      C1848   1.411       .  A
C1843      H1850   1.084       .  S
C1844      C1845   1.409       .  A
C1845      C1846   1.404       .  A
C1845      N1852   1.437       .  S
C1846      C1847   1.405       .  A
C1846      H1851   1.084       .  S
C1847      C1848   1.412       .  A
C1848      N1849   1.438       .  S
N1849      H1853   1.046       .  S
N1849      H1854   1.046       .  S
N1852      H1855   1.046       .  S
N1852      H1856   1.045       .  S
C1857      C1858   1.407       .  A
C1857      C2518   1.405       .  A
C1857      H1864   1.084       .  S
C1858      C1859   1.412       .  A
C1859      C1860   1.410       .  A
C1859      N1866   1.432       .  S
C1860      C2517   1.408       .  A
C1860      H1865   1.083       .  S
C1861      C2516   1.408       .  A
C1861      C1862   1.411       .  A
C1862      C2513   1.402   1_545  A
C1862      N1863   1.433       .  S
N1863      H1867   1.046       .  S
N1863      H1868   1.046       .  S
N1866      H1869   1.048       .  S
N1866      H1870   1.043       .  S
C1871      C1872   1.406       .  A
C1871      C1876   1.404       .  A
C1871      H1878   1.084       .  S
C1872      C1873   1.412       .  A
C1873      C1874   1.407       .  A
C1873      N1880   1.438       .  S
C1874      C1875   1.404       .  A
C1874      H1879   1.084       .  S
C1875      C1876   1.407       .  A
C1876      N1877   1.438       .  S
N1877      H1881   1.045       .  S
N1877      H1882   1.046       .  S
N1880      H1883   1.047       .  S
N1880      H1884   1.044       .  S
C1885      C1886   1.406       .  A
C1885      C1890   1.408       .  A
C1885      H1892   1.084       .  S
C1886      C1887   1.412       .  A
C1887      C1888   1.414       .  A
C1887      N1894   1.437       .  S
C1888      C1889   1.409       .  A
C1888      H1893   1.084       .  S
C1889      C1890   1.409       .  A
C1890      N1891   1.431       .  S
N1891      H1895   1.046       .  S
N1894      H1897   1.047       .  S
N1894      H1898   1.044       .  S
C1899      C1900   1.405       .  A
C1899      C1904   1.416       .  A
C1899      H1906   1.083       .  S
C1900      C1901   1.417       .  A
C1901      C1902   1.411       .  A
C1901      N1908   1.432       .  S
C1902      C1903   1.405       .  A
C1902      H1907   1.084       .  S
C1903      C1904   1.422       .  A
C1904      N1905   1.438       .  S
N1905      H1909   1.046       .  S
N1905      H1910   1.045       .  S
N1908      H1911   1.046       .  S
N1908      H1912   1.045       .  S
C1913      C1914   1.407       .  A
C1913      C1918   1.408       .  A
C1913      H1920   1.084       .  S
C1914      C1915   1.413       .  A
C1915      C1916   1.407       .  A
C1915      N1922   1.438       .  S
C1916      C1917   1.405       .  A
C1916      H1921   1.084       .  S
C1917      C1918   1.410       .  A
C1918      N1919   1.438       .  S
N1919      H1923   1.046       .  S
N1919      H1924   1.046       .  S
N1922      H1925   1.046       .  S
N1922      H1926   1.045       .  S
C1927      C1928   1.405       .  A
C1927      C1932   1.410       .  A
C1927      H1934   1.084       .  S
C1928      C1929   1.415       .  A
C1929      C1930   1.409       .  A
C1929      N1936   1.437       .  S
C1930      C1931   1.402       .  A
C1930      H1935   1.084       .  S
C1931      C1932   1.413       .  A
C1932      N1933   1.432       .  S
N1933      H1937   1.046       .  S
N1933      H1938   1.045       .  S
N1936      H1939   1.044       .  S
N1936      H1940   1.047       .  S
C1941      C1942   1.410       .  A
C1941      C1946   1.414       .  A
C1941      H1948   1.083       .  S
C1942      C1943   1.425       .  A
C1943      C1944   1.402       .  A
C1943      N1950   1.432       .  S
C1944      C1945   1.401       .  A
C1944      H1949   1.084       .  S
C1945      C1946   1.414       .  A
C1946      N1947   1.438       .  S
N1947      H1951   1.046       .  S
N1947      H1952   1.046       .  S
N1950      H1953   1.044       .  S
N1950      H1954   1.046       .  S
C1955      C1956   1.406       .  A
C1955      C2616   1.403   1_655  A
C1955      H1962   1.084       .  S
C1957      C1958   1.411       .  A
C1957      N1964   1.432       .  S
C1958      C2615   1.408       .  A
C1958      H1963   1.084       .  S
C1959      C2614   1.406       .  A
C1960      C2611   1.405   1_445  A
C1960      N1961   1.433       .  S
N1961      H1965   1.047       .  S
N1961      H1966   1.044       .  S
N1964      H1967   1.046       .  S
N1964      H1968   1.045       .  S
O1969      C1972   1.269       .  A
O1969     Cd1974   2.491       .  S
C1970      O1979   1.263       .  A
C1970      O1975   1.271       .  A
C1970      C2584   1.486       .  S
O1971     Cd1974   2.482       .  S
C1972      O1980   1.266       .  A
C1972      C2612   1.493       .  S
C1973      O1978   1.270       .  A
C1973      O1976   1.265       .  A
C1973      C2598   1.499       .  S
Cd1974     O1981   2.403   1_655  S
Cd1974     O1980   2.454       .  S
Cd1974     O1979   2.449       .  S
Cd1974     O1975   2.521       .  S
Cd1974     O1978   2.521       .  S
Cd1974     O1976   2.470       .  S
C1977      C2570   1.475       .  S
O1982      C1985   1.270       .  A
O1982     Cd1987   2.505       .  S
C1983      O1992   1.264       .  A
C1983      O1988   1.270       .  A
C1983      C2531   1.483       .  S
O1984     Cd1987   2.537       .  S
C1985      O1993   1.266       .  A
C1985      C2615   1.494       .  S
C1986      O1991   1.273       .  A
C1986      O1989   1.264       .  A
C1986      C2556   1.500       .  S
Cd1987     O1994   2.406       .  S
Cd1987     O1993   2.452       .  S
Cd1987     O1992   2.436       .  S
Cd1987     O1988   2.511       .  S
Cd1987     O1991   2.534       .  S
Cd1987     O1989   2.459       .  S
C1990      C2545   1.491       .  S
O1995      C1998   1.270       .  A
O1995     Cd2000   2.498       .  S
C1996      O2005   1.264       .  A
C1996      O2001   1.271       .  A
C1996      C2489   1.486       .  S
O1997      C2003   1.275       .  A
O1997     Cd2000   2.521       .  S
C1998      O2006   1.267       .  A
C1998      C2517   1.494       .  S
C1999      O2004   1.273       .  A
C1999      O2002   1.266       .  A
C1999      C2559   1.503       .  S
Cd2000     O2007   2.406       .  S
Cd2000     O2006   2.462       .  S
Cd2000     O2005   2.437       .  S
Cd2000     O2001   2.512       .  S
Cd2000     O2004   2.547       .  S
Cd2000     O2002   2.479       .  S
C2003      O2007   1.262       .  A
C2003      C2500   1.480       .  S
O2008      C2011   1.272       .  A
O2008     Cd2013   2.529       .  S
C2009      O2018   1.264       .  A
C2009      O2014   1.271       .  A
C2009      C2461   1.492       .  S
O2010      C2016   1.273       .  A
O2010     Cd2013   2.507       .  S
C2011      O2019   1.265       .  A
C2011      C2514   1.495       .  S
C2012      O2017   1.270       .  A
C2012      O2015   1.265       .  A
C2012      C2601   1.500       .  S
Cd2013     O2020   2.417       .  S
Cd2013     O2019   2.432       .  S
Cd2013     O2018   2.467       .  S
Cd2013     O2014   2.513       .  S
Cd2013     O2017   2.523       .  S
Cd2013     O2015   2.479       .  S
C2016      O2020   1.263       .  A
C2016      C2472   1.486       .  S
O2021      C2024   1.265       .  A
O2021     Cd2026   2.428       .  S
C2022      O2031   1.265       .  A
C2022      O2027   1.270       .  A
C2022      C2430   1.485       .  S
O2023      C2029   1.263       .  A
O2023     Cd2026   2.414       .  S
C2024      O2032   1.271       .  A
C2025      O2030   1.270       .  A
C2025      O2028   1.267       .  A
C2025      C2444   1.490       .  S
Cd2026     O2033   2.511       .  S
Cd2026     O2032   2.464       .  S
Cd2026     O2031   2.436       .  S
Cd2026     O2027   2.509       .  S
Cd2026     O2030   2.472       .  S
Cd2026     O2028   2.438       .  S
C2029      O2033   1.271       .  A
C2029      C2416   1.475       .  S
O2034      C2037   1.271       .  A
C2035      O2044   1.266       .  A
C2035      O2040   1.271       .  A
C2035      C2391   1.494       .  S
O2036      C2042   1.272       .  A
O2036     Cd2039   2.534       .  S
C2037      C2377   1.486       .  S
C2038      O2043   1.271       .  A
C2038      O2041   1.267       .  A
C2038      C2447   1.487       .  S
Cd2039     O2046   2.432       .  S
Cd2039     O2045   2.439       .  S
Cd2039     O2044   2.470       .  S
Cd2039     O2040   2.509       .  S
Cd2039     O2043   2.501       .  S
Cd2039     O2041   2.461       .  S
C2042      O2046   1.262       .  A
C2042      C2360   1.483       .  S
O2047      C2050   1.269       .  A
O2047     Cd2052   2.530       .  S
C2048      O2057   1.263       .  A
C2048      O2053   1.270       .  A
C2048      C2388   1.501       .  S
O2049      C2055   1.269       .  A
O2049     Cd2052   2.528       .  S
C2050      O2058   1.263       .  A
C2050      C2458   1.495       .  S
C2051      O2056   1.267       .  A
C2051      O2054   1.265       .  A
C2051      C2346   1.495       .  S
Cd2052     O2059   2.429       .  S
Cd2052     O2058   2.455       .  S
Cd2052     O2057   2.480       .  S
Cd2052     O2053   2.536       .  S
Cd2052     O2056   2.526       .  S
Cd2052     O2054   2.456       .  S
C2055      O2059   1.262       .  A
C2055      C2503   1.485       .  S
O2060      C2063   1.273       .  A
O2060     Cd2065   2.527       .  S
C2061      O2070   1.265       .  A
C2061      O2066   1.272       .  A
C2061      C2433   1.498       .  S
O2062      C2068   1.271       .  A
O2062     Cd2065   2.544       .  S
C2063      O2071   1.264       .  A
C2063      C2486   1.489       .  S
C2064      O2069   1.271       .  A
C2064      O2067   1.267       .  A
C2064      C2349   1.495       .  S
Cd2065     O2072   2.427       .  S
Cd2065     O2071   2.433       .  S
Cd2065     O2070   2.480       .  S
Cd2065     O2066   2.513       .  S
Cd2065     O2069   2.508       .  S
Cd2065     O2067   2.463       .  S
C2068      O2072   1.260       .  A
C2068      C2475   1.482       .  S
O2073      C2076   1.272       .  A
O2073     Cd2078   2.499       .  S
C2074      O2083   1.263       .  A
C2074      O2079   1.272       .  A
C2074      C2290   1.481   1_556  S
O2075     Cd2078   2.502       .  S
C2076      O2084   1.267       .  A
C2076      C2335   1.487       .  S
C2077      O2082   1.272       .  A
C2077      O2080   1.266       .  A
C2077      C2318   1.504       .  S
Cd2078     O2085   2.441   1_655  S
Cd2078     O2084   2.421       .  S
Cd2078     O2083   2.423       .  S
Cd2078     O2079   2.514       .  S
Cd2078     O2082   2.544       .  S
Cd2078     O2080   2.474       .  S
C2081      C2304   1.479       .  S
O2086      C2089   1.269       .  A
O2086     Cd2091   2.503       .  S
C2087      O2096   1.262   1_554  A
C2087      O2092   1.270       .  A
C2087      C2262   1.480       .  S
O2088     Cd2091   2.498       .  S
C2089      O2097   1.265       .  A
C2089      C2332   1.489       .  S
C2090      O2095   1.270       .  A
C2090      O2093   1.263       .  A
C2090      C2279   1.502       .  S
Cd2091     O2098   2.451       .  S
Cd2091     O2097   2.471       .  S
Cd2091     O2096   2.451       .  S
Cd2091     O2092   2.516   1_556  S
Cd2091     O2095   2.539       .  S
Cd2091     O2093   2.451       .  S
C2094      C2248   1.491       .  S
O2099      C2102   1.272       .  A
O2099     Cd2104   2.495       .  S
C2100      O2109   1.262       .  A
C2100      O2105   1.271       .  A
C2100      C2374   1.482       .  S
O2101      C2107   1.273       .  A
O2101     Cd2104   2.490       .  S
C2102      O2110   1.266       .  A
C2102      C2234   1.491       .  S
C2103      O2108   1.271       .  A
C2103      O2106   1.265       .  A
C2103      C2321   1.496       .  S
Cd2104     O2111   2.434       .  S
Cd2104     O2110   2.436       .  S
Cd2104     O2109   2.417       .  S
Cd2104     O2105   2.537       .  S
Cd2104     O2108   2.524       .  S
Cd2104     O2106   2.460       .  S
C2107      O2111   1.265       .  A
C2107      C2419   1.482       .  S
O2112      C2115   1.271       .  A
O2112     Cd2117   2.507       .  S
C2113      O2122   1.264       .  A
C2113      O2118   1.269       .  A
C2113      C2402   1.478       .  S
O2114      C2120   1.274       .  A
O2114     Cd2117   2.532       .  S
C2115      O2123   1.267       .  A
C2115      C2237   1.493       .  S
C2116      O2121   1.273       .  A
C2116      O2119   1.263       .  A
C2116      C2276   1.501       .  S
Cd2117     O2124   2.438       .  S
Cd2117     O2123   2.428       .  S
Cd2117     O2122   2.430       .  S
Cd2117     O2118   2.496       .  S
Cd2117     O2121   2.531       .  S
Cd2117     O2119   2.472       .  S
C2120      O2124   1.264       .  A
C2120      C2363   1.489       .  S
O2125      C2128   1.272       .  A
C2126      O2135   1.265       .  A
C2126      O2131   1.270       .  A
C2126      C2209   1.496       .  S
O2127      C2133   1.272       .  A
O2127     Cd2130   2.546       .  S
C2128      C2293   1.479       .  S
C2129      O2134   1.271       .  A
C2129      O2132   1.267       .  A
C2129      C2223   1.499       .  S
Cd2130     O2137   2.422       .  S
Cd2130     O2136   2.467       .  S
Cd2130     O2135   2.484       .  S
Cd2130     O2131   2.506       .  S
Cd2130     O2134   2.504       .  S
Cd2130     O2132   2.469       .  S
C2133      O2137   1.260       .  A
C2133      C2251   1.487   1_554  S
O2138      C2141   1.270   1_565  A
O2138     Cd2143   2.494       .  S
C2139      O2148   1.266       .  A
C2139      O2144   1.270       .  A
C2139      C2192   1.494       .  S
O2140      C2146   1.270       .  A
O2140     Cd2143   2.529       .  S
C2141      O2149   1.264       .  A
C2142      O2147   1.270       .  A
C2142      O2145   1.266       .  A
C2142      C2220   1.484       .  S
Cd2143     O2150   2.431       .  S
Cd2143     O2149   2.441   1_565  S
Cd2143     O2148   2.465       .  S
Cd2143     O2144   2.496       .  S
Cd2143     O2147   2.476       .  S
Cd2143     O2145   2.461       .  S
C2146      O2150   1.262       .  A
C2146      C2307   1.486   1_554  S
O2151      C2154   1.272       .  A
O2151     Cd2156   2.507       .  S
C2152      O2161   1.265       .  A
C2152      O2157   1.270       .  A
C2152      C2206   1.504       .  S
O2153      C2159   1.270       .  A
O2153     Cd2156   2.528       .  S
C2154      O2162   1.265       .  A
C2154      C2587   1.485       .  S
C2155      O2160   1.270       .  A
C2155      O2158   1.266       .  A
C2155      C2178   1.497       .  S
Cd2156     O2163   2.462       .  S
Cd2156     O2162   2.437       .  S
Cd2156     O2161   2.483       .  S
Cd2156     O2157   2.552       .  S
Cd2156     O2160   2.518       .  S
Cd2156     O2158   2.445       .  S
C2159      O2163   1.261       .  A
C2159      C2542   1.487       .  S
O2164      C2167   1.271       .  A
O2164     Cd2169   2.522       .  S
C2165      O2174   1.265       .  A
C2165      O2170   1.270       .  A
C2165      C2195   1.496       .  S
O2166      C2172   1.269       .  A
O2166     Cd2169   2.506       .  S
C2167      O2175   1.264       .  A
C2167      C2528   1.487       .  S
C2168      O2173   1.269       .  A
C2168      O2171   1.265       .  A
C2168      C2181   1.490       .  S
Cd2169     O2176   2.410       .  S
Cd2169     O2175   2.445       .  S
Cd2169     O2174   2.477       .  S
Cd2169     O2170   2.503       .  S
Cd2169     O2173   2.510       .  S
Cd2169     O2171   2.446       .  S
C2172      O2176   1.262       .  A
C2172      C2573   1.477       .  S
C2177      C2178   1.407       .  A
C2177      C2182   1.405       .  A
C2177      H2184   1.083       .  S
C2178      C2179   1.417       .  A
C2179      C2180   1.414       .  A
C2179      N2186   1.437       .  S
C2180      C2181   1.406       .  A
C2180      H2185   1.083       .  S
C2181      C2182   1.412       .  A
C2182      N2183   1.438       .  S
N2183      H2187   1.046       .  S
N2183      H2188   1.045       .  S
N2186      H2189   1.050       .  S
N2186      H2190   1.041       .  S
C2191      C2192   1.407       .  A
C2191      C2196   1.410       .  A
C2191      H2198   1.083       .  S
C2192      C2193   1.411       .  A
C2193      C2194   1.408       .  A
C2193      N2200   1.432       .  S
C2194      C2195   1.409       .  A
C2194      H2199   1.084       .  S
C2195      C2196   1.415       .  A
C2196      N2197   1.437       .  S
N2197      H2201   1.045       .  S
N2197      H2202   1.046       .  S
N2200      H2203   1.046       .  S
N2200      H2204   1.045       .  S
C2205      C2206   1.409       .  A
C2205      C2210   1.410       .  A
C2205      H2212   1.083       .  S
C2206      C2207   1.417       .  A
C2207      C2208   1.415       .  A
C2207      N2214   1.437       .  S
C2208      C2209   1.408       .  A
C2208      H2213   1.084       .  S
C2209      C2210   1.412       .  A
C2210      N2211   1.438       .  S
N2211      H2215   1.046       .  S
N2211      H2216   1.045       .  S
N2214      H2217   1.045       .  S
N2214      H2218   1.046       .  S
C2219      C2220   1.404       .  A
C2219      C2224   1.407   1_565  A
C2219      H2226   1.084       .  S
C2221      C2222   1.404       .  A
C2221      N2228   1.433       .  S
C2222      C2223   1.406       .  A
C2222      H2227   1.084       .  S
C2224      N2225   1.431       .  S
N2225      H2229   1.045       .  S
N2225      H2230   1.046   1_554  S
N2228      H2231   1.045       .  S
N2228      H2232   1.046       .  S
C2233      C2234   1.407       .  A
C2233      C2238   1.412       .  A
C2233      H2240   1.083       .  S
C2234      C2235   1.415       .  A
C2235      C2236   1.404       .  A
C2235      N2242   1.438       .  S
C2236      C2237   1.405       .  A
C2236      H2241   1.083       .  S
C2237      C2238   1.416       .  A
C2238      N2239   1.437       .  S
N2239      H2243   1.046       .  S
N2239      H2244   1.046       .  S
N2242      H2245   1.045       .  S
N2242      H2246   1.046       .  S
C2247      C2248   1.409       .  A
C2247      C2252   1.411       .  A
C2247      H2254   1.084       .  S
C2248      C2249   1.413       .  A
C2249      C2250   1.408       .  A
C2249      N2256   1.438       .  S
C2250      C2251   1.406       .  A
C2250      H2255   1.084       .  S
C2251      C2252   1.411       .  A
C2252      N2253   1.438       .  S
N2253      H2257   1.046       .  S
N2253      H2258   1.046   1_556  S
N2256      H2260   1.046       .  S
C2261      C2262   1.406       .  A
C2261      C2266   1.411       .  A
C2261      H2268   1.084       .  S
C2262      C2263   1.409       .  A
C2263      C2264   1.406       .  A
C2263      N2270   1.438       .  S
C2264      C2265   1.405       .  A
C2264      H2269   1.084       .  S
C2265      C2266   1.411       .  A
C2266      N2267   1.437       .  S
N2267      H2271   1.046       .  S
N2270      H2273   1.046   1_554  S
N2270      H2274   1.046       .  S
C2275      C2276   1.403       .  A
C2275      C2280   1.411       .  A
C2275      H2282   1.083       .  S
C2276      C2277   1.423       .  A
C2277      C2278   1.408       .  A
C2277      N2284   1.433       .  S
C2278      C2279   1.407       .  A
C2278      H2283   1.084       .  S
C2279      C2280   1.420       .  A
C2280      N2281   1.438       .  S
N2281      H2285   1.046       .  S
N2281      H2286   1.045       .  S
N2284      H2287   1.045       .  S
N2284      H2288   1.045       .  S
C2289      C2290   1.406       .  A
C2289      C2294   1.407       .  A
C2289      H2296   1.084       .  S
C2290      C2291   1.409       .  A
C2291      C2292   1.407       .  A
C2291      N2298   1.437       .  S
C2292      C2293   1.405       .  A
C2292      H2297   1.084       .  S
C2293      C2294   1.411       .  A
C2294      N2295   1.438       .  S
N2295      H2299   1.045       .  S
N2295      H2300   1.046       .  S
N2298      H2301   1.046   1_554  S
N2298      H2302   1.045       .  S
C2303      C2304   1.401       .  A
C2303      C2308   1.408       .  A
C2303      H2310   1.084       .  S
C2304      C2305   1.410       .  A
C2305      C2306   1.406       .  A
C2305      N2312   1.433       .  S
C2306      C2307   1.404       .  A
C2306      H2311   1.084       .  S
C2307      C2308   1.417       .  A
C2308      N2309   1.438       .  S
N2309      H2313   1.042       .  S
N2309      H2314   1.049       .  S
N2312      H2315   1.045       .  S
N2312      H2316   1.046       .  S
C2317      C2318   1.410       .  A
C2317      C2322   1.412       .  A
C2317      H2324   1.083       .  S
C2318      C2319   1.417       .  A
C2319      C2320   1.413       .  A
C2319      N2326   1.437       .  S
C2320      C2321   1.408       .  A
C2320      H2325   1.084       .  S
C2321      C2322   1.412       .  A
C2322      N2323   1.438       .  S
N2323      H2327   1.045       .  S
N2323      H2328   1.046       .  S
N2326      H2329   1.045       .  S
N2326      H2330   1.046       .  S
C2331      C2336   1.411   1_455  A
C2331      H2338   1.083   1_556  S
C2332      C2333   1.412       .  A
C2333      C2334   1.411       .  A
C2333      N2340   1.438       .  S
C2334      H2339   1.083       .  S
C2335      C2336   1.413       .  A
C2336      N2337   1.438   1_556  S
N2337      H2341   1.046   1_655  S
N2337      H2342   1.045       .  S
N2340      H2343   1.046       .  S
N2340      H2344   1.045       .  S
C2345      C2350   1.413       .  A
C2345      H2352   1.083       .  S
C2346      C2347   1.411       .  A
C2347      C2348   1.401   1_655  A
C2347      N2354   1.432       .  S
C2348      H2353   1.083       .  S
C2349      C2350   1.413       .  A
C2350      N2351   1.432       .  S
N2351      H2355   1.046       .  S
N2351      H2356   1.045       .  S
N2354      H2357   1.044       .  S
N2354      H2358   1.047   1_655  S
C2359      C2360   1.401       .  A
C2359      C2364   1.411       .  A
C2359      H2366   1.084       .  S
C2360      C2361   1.410       .  A
C2361      C2362   1.407       .  A
C2361      N2368   1.433       .  S
C2362      C2363   1.403       .  A
C2362      H2367   1.084       .  S
C2363      C2364   1.417       .  A
C2364      N2365   1.437       .  S
N2365      H2369   1.046       .  S
N2365      H2370   1.045       .  S
N2368      H2371   1.045       .  S
N2368      H2372   1.046       .  S
C2373      C2374   1.403       .  A
C2373      C2378   1.409       .  A
C2373      H2380   1.084       .  S
C2374      C2375   1.412       .  A
C2375      C2376   1.405       .  A
C2375      N2382   1.438       .  S
C2376      C2377   1.402       .  A
C2376      H2381   1.083       .  S
C2377      C2378   1.415       .  A
C2378      N2379   1.433       .  S
N2379      H2383   1.046       .  S
N2379      H2384   1.045       .  S
N2382      H2385   1.046       .  S
N2382      H2386   1.045       .  S
C2387      C2388   1.406       .  A
C2387      C2392   1.410       .  A
C2387      H2394   1.083       .  S
C2388      C2389   1.418       .  A
C2389      C2390   1.409       .  A
C2389      N2396   1.432       .  S
C2390      C2391   1.403       .  A
C2390      H2395   1.084       .  S
C2391      C2392   1.414       .  A
C2392      N2393   1.432       .  S
N2393      H2397   1.044       .  S
N2393      H2398   1.047       .  S
N2396      H2399   1.045       .  S
N2396      H2400   1.047       .  S
C2401      C2402   1.404       .  A
C2401      C2406   1.405       .  A
C2401      H2408   1.084       .  S
C2402      C2403   1.412       .  A
C2403      C2404   1.408       .  A
C2403      N2410   1.438       .  S
C2404      C2405   1.404       .  A
C2404      H2409   1.084       .  S
C2405      C2406   1.409       .  A
N2407      H2411   1.045   1_565  S
N2407      H2412   1.046       .  S
N2410      H2413   1.046       .  S
N2410      H2414   1.045       .  S
C2415      C2416   1.403       .  A
C2415      C2420   1.405       .  A
C2415      H2422   1.084       .  S
C2416      C2417   1.407       .  A
C2417      C2418   1.409       .  A
C2417      N2424   1.437       .  S
C2418      C2419   1.409       .  A
C2418      H2423   1.084       .  S
C2419      C2420   1.411       .  A
C2420      N2421   1.438       .  S
N2421      H2425   1.045       .  S
N2421      H2426   1.046       .  S
N2424      H2427   1.045       .  S
N2424      H2428   1.046       .  S
C2429      C2430   1.402       .  A
C2429      C2434   1.409       .  A
C2429      H2436   1.084       .  S
C2430      C2431   1.412       .  A
C2431      C2432   1.409       .  A
C2431      N2438   1.438       .  S
C2432      C2433   1.405       .  A
C2432      H2437   1.083       .  S
C2433      C2434   1.418       .  A
C2434      N2435   1.432       .  S
N2435      H2439   1.046       .  S
N2435      H2440   1.046       .  S
N2438      H2441   1.047       .  S
N2438      H2442   1.044       .  S
C2443      C2448   1.403       .  A
C2443      H2450   1.084       .  S
C2445      C2446   1.415   1_455  A
C2445      N2452   1.437       .  S
C2446      H2451   1.084       .  S
C2448      N2449   1.433       .  S
N2449      H2453   1.046       .  S
N2452      H2456   1.047       .  S
C2457      C2458   1.408       .  A
C2457      C2462   1.410       .  A
C2457      H2464   1.083       .  S
C2458      C2459   1.412       .  A
C2459      C2460   1.410       .  A
C2459      N2466   1.432       .  S
C2460      C2461   1.408       .  A
C2460      H2465   1.084       .  S
C2461      C2462   1.412       .  A
C2462      N2463   1.437       .  S
N2463      H2467   1.046       .  S
N2463      H2468   1.045       .  S
N2466      H2469   1.045       .  S
N2466      H2470   1.046       .  S
C2471      C2472   1.403       .  A
C2471      C2476   1.405       .  A
C2471      H2478   1.084       .  S
C2472      C2473   1.416       .  A
C2473      C2474   1.408       .  A
C2473      N2480   1.433       .  S
C2474      C2475   1.402       .  A
C2474      H2479   1.084       .  S
C2475      C2476   1.411       .  A
C2476      N2477   1.432       .  S
N2477      H2481   1.045       .  S
N2477      H2482   1.046       .  S
N2480      H2483   1.045       .  S
N2480      H2484   1.046       .  S
C2485      C2486   1.404       .  A
C2485      C2490   1.404       .  A
C2485      H2492   1.084       .  S
C2486      C2487   1.416       .  A
C2487      C2488   1.410       .  A
C2487      N2494   1.438       .  S
C2488      C2489   1.402       .  A
C2488      H2493   1.084       .  S
C2489      C2490   1.418       .  A
C2490      N2491   1.433       .  S
N2491      H2495   1.045       .  S
N2491      H2496   1.045       .  S
N2494      H2497   1.046       .  S
N2494      H2498   1.045       .  S
C2499      C2500   1.408       .  A
C2499      C2504   1.411       .  A
C2499      H2506   1.084       .  S
C2500      C2501   1.404       .  A
C2501      C2502   1.403       .  A
C2501      N2508   1.432       .  S
C2502      C2503   1.406       .  A
C2502      H2507   1.084       .  S
C2503      C2504   1.414       .  A
C2504      N2505   1.438       .  S
N2505      H2509   1.045       .  S
N2505      H2510   1.046       .  S
N2508      H2511   1.045       .  S
N2508      H2512   1.046       .  S
C2513      C2514   1.406       .  A
C2513      H2520   1.084       .  S
C2514      C2515   1.416       .  A
C2515      C2516   1.414   1_565  A
C2515      N2522   1.437       .  S
C2516      H2521   1.083       .  S
C2517      C2518   1.412       .  A
C2518      N2519   1.432       .  S
N2519      H2523   1.044       .  S
N2519      H2524   1.047       .  S
N2522      H2525   1.044       .  S
N2522      H2526   1.047       .  S
C2527      C2528   1.407       .  A
C2527      C2532   1.409       .  A
C2527      H2534   1.084       .  S
C2528      C2529   1.413       .  A
C2529      C2530   1.408       .  A
C2529      N2536   1.437       .  S
C2530      C2531   1.405       .  A
C2530      H2535   1.084       .  S
C2531      C2532   1.410       .  A
C2532      N2533   1.437       .  S
N2533      H2537   1.049       .  S
N2533      H2538   1.043       .  S
N2536      H2539   1.045       .  S
N2536      H2540   1.046       .  S
C2541      C2542   1.408       .  A
C2541      C2546   1.413       .  A
C2541      H2548   1.084       .  S
C2542      C2543   1.408       .  A
C2543      C2544   1.407       .  A
C2543      N2550   1.437       .  S
C2544      C2545   1.408       .  A
C2544      H2549   1.084       .  S
C2545      C2546   1.414       .  A
C2546      N2547   1.438       .  S
N2547      H2551   1.047       .  S
N2550      H2553   1.045       .  S
N2550      H2554   1.046       .  S
C2555      C2556   1.404       .  A
C2555      C2560   1.414       .  A
C2555      H2562   1.083       .  S
C2556      C2557   1.416       .  A
C2557      C2558   1.411       .  A
C2557      N2564   1.433       .  S
C2558      C2559   1.405       .  A
C2558      H2563   1.083       .  S
C2559      C2560   1.420       .  A
C2560      N2561   1.438       .  S
N2561      H2565   1.044       .  S
N2561      H2566   1.048       .  S
N2564      H2567   1.046       .  S
N2564      H2568   1.045       .  S
C2569      C2570   1.405       .  A
C2569      C2574   1.406       .  A
C2569      H2576   1.084       .  S
C2570      C2571   1.409       .  A
C2571      C2572   1.404       .  A
C2571      N2578   1.438       .  S
C2572      C2573   1.405       .  A
C2572      H2577   1.084       .  S
C2573      C2574   1.411       .  A
C2574      N2575   1.438       .  S
N2575      H2579   1.046       .  S
N2575      H2580   1.046       .  S
N2578      H2581   1.045       .  S
N2578      H2582   1.046       .  S
C2583      C2584   1.402       .  A
C2583      C2588   1.406       .  A
C2583      H2590   1.084       .  S
C2584      C2585   1.416       .  A
C2585      C2586   1.410       .  A
C2585      N2592   1.438       .  S
C2586      C2587   1.404       .  A
C2586      H2591   1.084       .  S
C2587      C2588   1.411       .  A
C2588      N2589   1.432       .  S
N2589      H2593   1.046       .  S
N2589      H2594   1.045       .  S
N2592      H2595   1.046       .  S
N2592      H2596   1.046       .  S
C2597      C2598   1.406       .  A
C2597      C2602   1.410       .  A
C2597      H2604   1.084       .  S
C2598      C2599   1.421       .  A
C2599      C2600   1.406       .  A
C2599      N2606   1.432       .  S
C2600      C2601   1.405       .  A
C2600      H2605   1.084       .  S
C2601      C2602   1.416       .  A
C2602      N2603   1.432       .  S
N2603      H2607   1.046       .  S
N2603      H2608   1.045       .  S
N2606      H2609   1.043       .  S
N2606      H2610   1.047       .  S
C2611      C2612   1.406       .  A
C2611      H2618   1.084       .  S
C2613      C2614   1.409   1_565  A
C2613      N2620   1.432       .  S
C2614      H2619   1.084       .  S
C2616      N2617   1.433       .  S
N2617      H2621   1.045       .  S
N2617      H2622   1.046   1_455  S
N2620      H2623   1.045       .  S
N2620      H2624   1.046       .  S
