geometry optimzed in LAMMPS
_audit_creation_date              2020-12-01 
_audit_creation_method            'lammps2cif' 
_symmetry_space_group_name_H-M    'P1' 
_symmetry_Int_Tables_number       1 
_symmetry_cell_setting            triclinic 
loop_ 
_symmetry_equiv_pos_as_xyz 
  x,y,z 
_cell_length_a                    49.07485292 
_cell_length_b                    49.00056965932982 
_cell_length_c                    49.131092839189456 
_cell_angle_alpha                 90.01155264719551 
_cell_angle_beta                  89.77637511891534 
_cell_angle_gamma                 89.9041268376124 
loop_ 
_atom_site_label 
_atom_site_type_symbol 
_atom_site_fract_x 
_atom_site_fract_y 
_atom_site_fract_z 
_atom_site_charge 
C1          C  0.08106455  0.70460442  0.95226098     0.03400
C2          C  0.06943960  0.71320569  0.92793604    -0.12700
C3          C  0.04326867  0.70503344  0.92057046     0.00900
C4          C  0.02841003  0.68756620  0.93795596    -0.11300
C5          C  0.04025780  0.67774587  0.96223229     0.03400
C6          C  0.06666087  0.68657442  0.96937921    -0.10700
H7          H  0.08045586  0.72755186  0.91517395     0.09000
H8          H  0.00809915  0.68110600  0.93228515     0.06500
H9          H  0.07576755  0.67976262  0.98825476     0.06400
C10         C  0.88002806  0.70919160  0.95142138     0.03400
C11         C  0.88603214  0.71195450  0.92372528    -0.12700
C12         C  0.90857626  0.69894767  0.91183937     0.00900
C13         C  0.92479972  0.68169997  0.92831772    -0.11300
C14         C  0.91920348  0.67868536  0.95645652     0.03400
C15         C  0.89706030  0.69306855  0.96794543    -0.10700
H16         H  0.87265070  0.72428982  0.91125495     0.09000
H17         H  0.94182557  0.67074001  0.91942852     0.06500
H18         H  0.89212505  0.69042502  0.98930399     0.06400
C19         C  0.90304700  0.70394018  0.13083862     0.03400
C20         C  0.87958238  0.71542234  0.11961913    -0.12700
C21         C  0.87110736  0.70865981  0.09349621     0.00900
C22         C  0.88626706  0.68993147  0.07787976    -0.11300
C23         C  0.90999314  0.67795745  0.08876800     0.03400
C24         C  0.91819397  0.68491216  0.11538207    -0.10700
H25         H  0.86736082  0.72959272  0.13147529     0.09000
H26         H  0.87952729  0.68453038  0.05760669     0.06500
H27         H  0.93630284  0.67563233  0.12392032     0.06400
C28         C  0.05194212  0.69972274  0.13549796     0.03400
C29         C  0.03343334  0.68427350  0.11979165    -0.12700
C30         C  0.04020018  0.67617173  0.09299505     0.00900
C31         C  0.06606537  0.68297424  0.08240957    -0.11300
C32         C  0.08465231  0.69817202  0.09806207     0.03400
C33         C  0.07718494  0.70661446  0.12421499    -0.10700
H34         H  0.01410906  0.67807683  0.12853159     0.09000
H35         H  0.07203191  0.67569847  0.06241827     0.06500
H36         H  0.09196108  0.71732153  0.13658904     0.06400
C37         C  0.90444154  0.46480583  0.12656037     0.03400
C38         C  0.91985548  0.48106017  0.10855017    -0.12700
C39         C  0.90715233  0.49468236  0.08671668     0.00900
C40         C  0.87888182  0.49095236  0.08255986    -0.11300
C41         C  0.86363455  0.47336585  0.09963173     0.03400
C42         C  0.87671529  0.46081699  0.12156893    -0.10700
H43         H  0.94126284  0.48457926  0.11257317     0.09000
H44         H  0.86892609  0.50152041  0.06597405     0.06500
H45         H  0.86502883  0.44815623  0.13541324     0.06400
C46         C  0.87154979  0.46822239  0.95594162     0.03400
C47         C  0.87610039  0.46608349  0.92796735    -0.12700
C48         C  0.89860229  0.47830456  0.91551993     0.00900
C49         C  0.91638029  0.49414488  0.93160025    -0.11300
C50         C  0.91237720  0.49649242  0.96002887     0.03400
C51         C  0.89006359  0.48296450  0.97218694    -0.10700
H52         H  0.86178455  0.45463437  0.91571291     0.09000
H53         H  0.93342715  0.50452408  0.92212985     0.06500
H54         H  0.88626735  0.48515188  0.99382337     0.06400
C55         C  0.08857184  0.47774063  0.94996532     0.03400
C56         C  0.07244920  0.49255765  0.96876542    -0.12700
C57         C  0.04407092  0.49552389  0.96481046     0.00900
C58         C  0.03190845  0.48298652  0.94202012    -0.11300
C59         C  0.04818535  0.46941396  0.92252097     0.03400
C60         C  0.07623429  0.46757756  0.92645081    -0.10700
H61         H  0.08177445  0.50164451  0.98652940     0.09000
H62         H  0.01021226  0.48517872  0.93861052     0.06500
H63         H  0.08849506  0.45735788  0.91113653     0.06400
C64         C  0.04824895  0.47818471  0.14198071     0.03400
C65         C  0.06929883  0.46323716  0.12971016    -0.12700
C66         C  0.07281797  0.46267577  0.10150748     0.00900
C67         C  0.05520678  0.47808935  0.08483912    -0.11300
C68         C  0.03495819  0.49486590  0.09662775     0.03400
C69         C  0.03153059  0.49463049  0.12525762    -0.10700
H70         H  0.08325168  0.45161279  0.14220972     0.09000
H71         H  0.05835276  0.47833249  0.06299970     0.06500
H72         H  0.01567495  0.50709756  0.13431925     0.06400
O73         O  0.03317806  0.63185098  0.97517900    -0.75000
O74         O  0.00721139  0.66482854  0.99575355    -0.53900
C75         C  0.02595122  0.65690101  0.97894473     0.78700
O76         O  0.92599055  0.54158800  0.96843849    -0.59600
O77         O  0.94424796  0.50821881  0.99541754    -0.52600
C78         C  0.92875671  0.51652420  0.97577084     0.70700
O79         O  0.93079919  0.63276270  0.96523615    -0.74200
O80         O  0.94748952  0.66531245  0.99407461    -0.54700
C81         C  0.93378128  0.65773551  0.97291469     0.76700
O82         O  0.03632619  0.54054657  0.97909308    -0.59300
O83         O  0.00773701  0.50763405  0.99578168    -0.52400
C84         C  0.02840287  0.51561082  0.98134981     0.73300
Zr85       Zr  0.02074315  0.58620800  0.99163591     2.54700
O86         O  0.02829074  0.58391163  0.94272236    -0.79900
O87         O  0.06907070  0.58878026  0.00238177    -0.93300
Zr88       Zr  0.94090719  0.58691888  0.98246323     2.64700
O89         O  0.94676734  0.58505912  0.93322670    -0.98300
O90         O  0.89141508  0.58943891  0.98067040    -0.80300
O91         O  0.98102474  0.61333676  0.98671137    -0.83700
O92         O  0.98065833  0.55954520  0.98648597    -2.18400
O93         O  0.02328263  0.54049245  0.08725716    -0.67100
O94         O  0.00574610  0.50764175  0.05923955    -0.51600
C95         C  0.02016905  0.51547092  0.07988028     0.71700
O96         O  0.91833909  0.63185948  0.07775064    -0.60000
O97         O  0.94397539  0.66467534  0.05656143    -0.51900
C98         C  0.92511096  0.65687110  0.07325035     0.73500
O99         O  0.91480685  0.54048584  0.07373269    -0.71400
O100        O  0.94346570  0.50776512  0.05656012    -0.50000
C101        C  0.92266711  0.51550211  0.07093628     0.74900
O102        O  0.02636729  0.63106991  0.08537476    -0.66700
O103        O  0.00707108  0.66431752  0.05894134    -0.53900
C104        C  0.02305287  0.65611581  0.07825407     0.73300
Zr105      Zr  0.01106987  0.58600343  0.07110754     2.77500
O106        O  0.00109427  0.58867621  0.11963629    -0.97400
O107        O  0.06031448  0.58414635  0.07659877    -0.78300
Zr108      Zr  0.93137731  0.58624064  0.06195608     2.70100
O109        O  0.92654797  0.58290565  0.11116008    -0.79500
O110        O  0.88277332  0.58899751  0.05250211    -0.98600
Zr111      Zr  0.97635457  0.64050531  0.02688310     2.21500
Zr112      Zr  0.97588992  0.53187801  0.02656540     2.11100
O113        O  0.97118453  0.55913854  0.06681953    -2.47300
O114        O  0.97128196  0.61319709  0.06697669    -0.79300
O115        O  0.01626945  0.55888469  0.03132103    -0.71500
O116        O  0.93576233  0.61372874  0.02236452    -2.32500
O117        O  0.01660770  0.61315694  0.03137665    -2.28700
O118        O  0.93586750  0.55947770  0.02199099    -0.73300
H119        H  0.98223946  0.54819480  0.97052734     0.78700
H120        H  0.91994853  0.62533259  0.02072922     0.79800
H121        H  0.96934657  0.54771536  0.08270237     0.82000
H122        H  0.03262234  0.62443916  0.03276830     0.79700
H123        H  0.88734197  0.59441888  0.96158301     0.42700
H124        H  0.87865816  0.57214806  0.04218365     0.41700
H125        H  0.93949631  0.59653820  0.11841573     0.41300
H126        H  0.99039688  0.57205211  0.12370931     0.39300
H127        H  0.06770603  0.59196567  0.05953212     0.42400
H128        H  0.07833286  0.58854263  0.98444458     0.37200
H129        H  0.01054702  0.57806811  0.93521298     0.43300
H130        H  0.95943971  0.56965147  0.92999115     0.39700
H131        H  0.01888098  0.58553876  0.12856300     0.44600
H132        H  0.07346625  0.57083915  0.01054647     0.43400
H133        H  0.92902479  0.57852323  0.92626889     0.43500
H134        H  0.87388877  0.58627077  0.07042213     0.43900
C135        C  0.58933777  0.01195679  0.13485776     0.03400
C136        C  0.57216327  0.02867028  0.11891583    -0.12700
C137        C  0.56751485  0.02256620  0.09123292     0.00900
C138        C  0.58008619  0.99945585  0.07962829    -0.11300
C139        C  0.59651787  0.98236341  0.09568894     0.03400
C140        C  0.60097035  0.98871544  0.12297955    -0.10700
H141        H  0.56246330  0.04639873  0.12792069     0.09000
H142        H  0.57629463  0.99422772  0.05854509     0.06500
H143        H  0.61351642  0.97516264  0.13508944     0.06400
C144        C  0.59611097  0.01974897  0.91780959     0.03400
C145        C  0.60565193  0.99467955  0.92721139    -0.12700
C146        C  0.59809411  0.98479126  0.95270326     0.00900
C147        C  0.58043662  0.00018655  0.96935386    -0.11300
C148        C  0.57014167  0.02546188  0.96016841     0.03400
C149        C  0.57811905  0.03520888  0.93419306    -0.10700
H150        H  0.61981072  0.98299987  0.91477589     0.09000
H151        H  0.57450463  0.99240419  0.98914976     0.06500
H152        H  0.57042380  0.05457851  0.92684197     0.06400
C153        C  0.59578493  0.19250689  0.95542134     0.03400
C154        C  0.57846950  0.17700108  0.97230651    -0.12700
C155        C  0.56882474  0.15145473  0.96343150     0.00900
C156        C  0.57735016  0.14126098  0.93802576    -0.11300
C157        C  0.59465201  0.15679822  0.92128582     0.03400
C158        C  0.60327605  0.18250053  0.92987591    -0.10700
H159        H  0.57240490  0.18484935  0.99204950     0.09000
H160        H  0.57034640  0.12145192  0.93117971     0.06500
H161        H  0.61729562  0.19409472  0.91727457     0.06400
C162        C  0.59411118  0.19266091  0.09609668     0.03400
C163        C  0.59851298  0.18648788  0.12339639    -0.12700
C164        C  0.58768789  0.16291235  0.13519471     0.00900
C165        C  0.57103931  0.14572355  0.11931938    -0.11300
C166        C  0.56652796  0.15154650  0.09153040     0.03400
C167        C  0.57848089  0.17498076  0.07990975    -0.10700
H168        H  0.61055663  0.20037667  0.13561625     0.09000
H169        H  0.56177535  0.12784218  0.12842223     0.06500
H170        H  0.57472502  0.18001528  0.05877422     0.06400
C171        C  0.35837614  0.19433499  0.95772440     0.03400
C172        C  0.35355349  0.18809352  0.93052884    -0.12700
C173        C  0.36466140  0.16478499  0.91841523     0.00900
C174        C  0.38170306  0.14763233  0.93402066    -0.11300
C175        C  0.38662114  0.15334090  0.96179222     0.03400
C176        C  0.37476477  0.17688187  0.97357866    -0.10700
H177        H  0.34116025  0.20192107  0.91854649     0.09000
H178        H  0.39103646  0.12987908  0.92468073     0.06500
H179        H  0.37892595  0.18201455  0.99460800     0.06400
C180        C  0.36759185  0.01537494  0.91314765     0.03400
C181        C  0.35840839  0.99031461  0.92297900    -0.12700
C182        C  0.36360975  0.98196811  0.94958878     0.00900
C183        C  0.37885110  0.99893892  0.96687051    -0.11300
C184        C  0.38854546  0.02428060  0.95744203     0.03400
C185        C  0.38307712  0.03232204  0.93039117    -0.10700
H186        H  0.34768014  0.97662822  0.90939789     0.09000
H187        H  0.38370766  0.99219840  0.98729764     0.06500
H188        H  0.39104786  0.05148288  0.92279531     0.06400
C189        C  0.36382162  0.01649125  0.13634037     0.03400
C190        C  0.37989631  0.03251554  0.11863933    -0.12700
C191        C  0.38531436  0.02386824  0.09176632     0.00900
C192        C  0.37487003  0.99855984  0.08293182    -0.11300
C193        C  0.35882162  0.98223719  0.10050247     0.03400
C194        C  0.35329119  0.99165382  0.12688058    -0.10700
H195        H  0.38867144  0.05143236  0.12590609     0.09000
H196        H  0.37996145  0.99121602  0.06273794     0.06500
H197        H  0.34199377  0.97869913  0.14077076     0.06400
C198        C  0.35844409  0.19260877  0.09627311     0.03400
C199        C  0.34995046  0.18310308  0.12161118    -0.12700
C200        C  0.35735031  0.15717740  0.13062540     0.00900
C201        C  0.37451553  0.14072911  0.11445542    -0.11300
C202        C  0.38417415  0.15044114  0.08920869     0.03400
C203        C  0.37567571  0.17632388  0.07998863    -0.10700
H204        H  0.33594593  0.19531778  0.13369573     0.09000
H205        H  0.38061618  0.12073348  0.12165247     0.06500
H206        H  0.38253276  0.18381831  0.06037687     0.06400
O207        O  0.52182701  0.03319246  0.08161557    -0.75000
O208        O  0.55498340  0.05512228  0.05713106    -0.53900
C209        C  0.54690781  0.03811551  0.07559939     0.78700
O210        O  0.43350299  0.03487643  0.96855227    -0.59600
O211        O  0.39963154  0.05600992  0.99287113    -0.52600
C212        C  0.40832410  0.03965116  0.97404564     0.70700
O213        O  0.52404856  0.03413295  0.97052218    -0.74200
O214        O  0.55630656  0.05714562  0.99491088    -0.54700
C215        C  0.54893183  0.03996926  0.97632327     0.76700
O216        O  0.43098997  0.03301964  0.08075323    -0.59300
O217        O  0.39821196  0.05587813  0.05675726    -0.52400
C218        C  0.40599896  0.03860503  0.07515409     0.73300
Zr219      Zr  0.47650272  0.04635643  0.06577488     2.54700
O220        O  0.47692358  0.99679920  0.06248570    -0.79900
O221        O  0.47368083  0.04725968  0.11530592    -0.93300
Zr222      Zr  0.47827242  0.04720863  0.98552397     2.64700
O223        O  0.47891489  0.99751442  0.98761729    -0.98300
O224        O  0.47917699  0.04898091  0.93602071    -0.80300
O225        O  0.50434975  0.04618678  0.02608375    -0.83700
O226        O  0.45031519  0.04608793  0.02517242    -2.18400
O227        O  0.43011391  0.14067906  0.07997981    -0.67100
O228        O  0.39772891  0.11728516  0.05604293    -0.51600
C229        C  0.40523710  0.13501327  0.07400672     0.71700
O230        O  0.52298762  0.14209927  0.97307782    -0.60000
O231        O  0.55558640  0.11873803  0.99686697    -0.51900
C232        C  0.54789306  0.13655837  0.97909231     0.73500
O233        O  0.43219453  0.14243341  0.97170530    -0.71400
O234        O  0.39895619  0.11888543  0.99449820    -0.50000
C235        C  0.40708656  0.13703108  0.97707953     0.74900
O236        O  0.52114902  0.14053719  0.08163830    -0.66700
O237        O  0.55467096  0.11832462  0.05780799    -0.53900
C238        C  0.54629436  0.13560277  0.07592353     0.73300
Zr239      Zr  0.47597016  0.12652602  0.06652622     2.77500
O240        O  0.47801835  0.17619429  0.06640459    -0.97400
O241        O  0.47272699  0.12247912  0.11581745    -0.78300
Zr242      Zr  0.47732791  0.12757096  0.98638676     2.70100
O243        O  0.47716910  0.17708855  0.99013044    -0.79500
O244        O  0.47821907  0.12688094  0.93679323    -0.98600
Zr245      Zr  0.53100849  0.08697686  0.02672477     2.21500
Zr246      Zr  0.42278940  0.08664581  0.02511771     2.11100
O247        O  0.44971329  0.12742136  0.02607722    -2.47300
O248        O  0.50359942  0.12742132  0.02680252    -0.79300
O249        O  0.44925140  0.08633176  0.06587419    -0.71500
O250        O  0.50466169  0.08758496  0.98584261    -2.32500
O251        O  0.50330620  0.08657562  0.06702278    -2.28700
O252        O  0.45078779  0.08716923  0.98510966    -0.73300
H253        H  0.43895068  0.02998267  0.02483097     0.78700
H254        H  0.51640184  0.08792583  0.96998547     0.79800
H255        H  0.43825290  0.14344073  0.02612083     0.82000
H256        H  0.51450410  0.08653090  0.08313422     0.79700
H257        H  0.49001013  0.06543897  0.93162883     0.42700
H258        H  0.46081984  0.11824615  0.93142026     0.41700
H259        H  0.49209575  0.18123916  0.00297734     0.41300
H260        H  0.45959826  0.18230082  0.06094242     0.39300
H261        H  0.49085019  0.11584749  0.12164165     0.42400
H262        H  0.48598607  0.06220820  0.12090524     0.37200
H263        H  0.48833259  0.99286469  0.04628722     0.43300
H264        H  0.45958739  0.99203989  0.98947157     0.39700
H265        H  0.47940419  0.18125892  0.08586512     0.44600
H266        H  0.48296855  0.03037350  0.12133918     0.43400
H267        H  0.48413675  0.99169649  0.96900725     0.43500
H268        H  0.47619153  0.14625802  0.93142985     0.43900
C269        C  0.08277172  0.01964743  0.64165891     0.03400
C270        C  0.06666265  0.03596748  0.62418300    -0.12700
C271        C  0.03904450  0.02928607  0.61923298     0.00900
C272        C  0.02786584  0.00592354  0.63169292    -0.11300
C273        C  0.04420959  0.98917367  0.64821067     0.03400
C274        C  0.07126390  0.99620587  0.65302507    -0.10700
H275        H  0.07548949  0.05374399  0.61447782     0.09000
H276        H  0.00696203  0.00015943  0.62762344     0.06500
H277        H  0.08356385  0.98295403  0.66571276     0.06400
C278        C  0.86459678  0.01233155  0.63561712     0.03400
C279        C  0.88085425  0.03030732  0.61992877    -0.12700
C280        C  0.90896363  0.02518128  0.61583949     0.00900
C281        C  0.92067641  0.00163683  0.62770804    -0.11300
C282        C  0.90434176  0.98333379  0.64278388     0.03400
C283        C  0.87665770  0.98875075  0.64625334    -0.10700
H284        H  0.87176909  0.04829198  0.61088608     0.09000
H285        H  0.94206097  0.99711058  0.62446986     0.06500
H286        H  0.86440973  0.97416058  0.65747034     0.06400
C287        C  0.89696658  0.20532020  0.63332424     0.03400
C288        C  0.91465203  0.18938921  0.61696696    -0.12700
C289        C  0.91117154  0.16075819  0.61514364     0.00900
C290        C  0.88984853  0.14830320  0.62977060    -0.11300
C291        C  0.87134397  0.16432637  0.64475832     0.03400
C292        C  0.87483625  0.19251952  0.64595169    -0.10700
H293        H  0.93133367  0.19899890  0.60613373     0.09000
H294        H  0.88679270  0.12644854  0.62833344     0.06500
H295        H  0.86035773  0.20455069  0.65759060     0.06400
C296        C  0.04599176  0.19839954  0.64165088     0.03400
C297        C  0.07209130  0.18997108  0.64907248    -0.12700
C298        C  0.08246406  0.16470816  0.64093932     0.00900
C299        C  0.06596861  0.14724162  0.62514053    -0.11300
C300        C  0.03919774  0.15511457  0.61801607     0.03400
C301        C  0.02949289  0.18091090  0.62613733    -0.10700
H302        H  0.08515580  0.20402610  0.65997310     0.09000
H303        H  0.07409452  0.12798517  0.61788307     0.06500
H304        H  0.00955819  0.18774238  0.61955693     0.06400
C305        C  0.90426770  0.19743461  0.40825178     0.03400
C306        C  0.91953785  0.18252489  0.42741541    -0.12700
C307        C  0.91316140  0.15499095  0.43289466     0.00900
C308        C  0.89106401  0.14270133  0.41930238    -0.11300
C309        C  0.87511761  0.15812737  0.40112881     0.03400
C310        C  0.88198783  0.18513203  0.39575491    -0.10700
H311        H  0.93643357  0.19215217  0.43779399     0.09000
H312        H  0.88560521  0.12174077  0.42371869     0.06500
H313        H  0.86954968  0.19683029  0.38174090     0.06400
C314        C  0.86524688  0.01908724  0.41325265     0.03400
C315        C  0.88087978  0.03544090  0.43108871    -0.12700
C316        C  0.90929775  0.03106303  0.43389553     0.00900
C317        C  0.92184649  0.00997722  0.41877965    -0.11300
C318        C  0.90604158  0.99281219  0.40215780     0.03400
C319        C  0.87817353  0.99758259  0.39966362    -0.10700
H320        H  0.87116246  0.05165221  0.44256545     0.09000
H321        H  0.94341717  0.00592451  0.42119479     0.06500
H322        H  0.86636261  0.98388007  0.38705829     0.06400
C323        C  0.08260516  0.02045236  0.40923610     0.03400
C324        C  0.07628031  0.99304479  0.40520597    -0.12700
C325        C  0.05275501  0.98138771  0.41633741     0.00900
C326        C  0.03582700  0.99768886  0.43315658    -0.11300
C327        C  0.04177923  0.02561493  0.43752557     0.03400
C328        C  0.06515663  0.03698826  0.42508436    -0.10700
H329        H  0.09010460  0.98065525  0.39313900     0.09000
H330        H  0.01793590  0.98884584  0.44263071     0.06500
H331        H  0.07025250  0.05821798  0.42850337     0.06400
C332        C  0.05098495  0.20472843  0.41810819     0.03400
C333        C  0.03378281  0.18807469  0.43429548    -0.12700
C334        C  0.03890335  0.15972953  0.43692232     0.00900
C335        C  0.06131745  0.14820648  0.42316279    -0.11300
C336        C  0.07914537  0.16486047  0.40807647     0.03400
C337        C  0.07397594  0.19279845  0.40604338    -0.10700
H338        H  0.01636912  0.19693403  0.44464638     0.09000
H339        H  0.06568697  0.12662626  0.42534538     0.06500
H340        H  0.08806435  0.20532183  0.39453315     0.06400
O341        O  0.91912967  0.03732989  0.57059361    -0.75000
O342        O  0.94232436  0.05962845  0.60423406    -0.53900
C343        C  0.92462686  0.04191640  0.59578760     0.78700
O344        O  0.02942419  0.03542632  0.48285696    -0.59600
O345        O  0.00911050  0.06050623  0.44926473    -0.52600
C346        C  0.02562557  0.04166807  0.45769671     0.70700
O347        O  0.02904985  0.03833505  0.57329707    -0.74200
O348        O  0.00459652  0.06144578  0.60574057    -0.54700
C349        C  0.02316667  0.04416915  0.59820669     0.76700
O350        O  0.91765456  0.04193245  0.47988799    -0.59300
O351        O  0.94535226  0.06118961  0.44762295    -0.52400
C352        C  0.92508126  0.04596554  0.45502762     0.73300
Zr353      Zr  0.93373274  0.05309020  0.52565265     2.54700
O354        O  0.93560861  0.00344065  0.52380369    -0.79900
O355        O  0.88416404  0.05609821  0.52542755    -0.93300
Zr356      Zr  0.01399123  0.05095886  0.52757037     2.64700
O357        O  0.00872194  0.00156601  0.52805421    -0.98300
O358        O  0.06358043  0.05069655  0.52783868    -0.80300
O359        O  0.97312453  0.05153279  0.55363764    -0.83700
O360        O  0.97462670  0.05131293  0.49964776    -2.18400
O361        O  0.92255942  0.14683140  0.47922344    -0.67100
O362        O  0.94548361  0.12158709  0.44721299    -0.51600
C363        C  0.92806082  0.14005272  0.45442970     0.71700
O364        O  0.02998599  0.14459278  0.57259577    -0.60000
O365        O  0.00487431  0.12264354  0.60530468    -0.51900
C366        C  0.02367739  0.13947945  0.59749827     0.73500
O367        O  0.02829760  0.14876020  0.48224233    -0.71400
O368        O  0.00755377  0.12389839  0.44878317    -0.50000
C369        C  0.02367352  0.14306311  0.45711260     0.74900
O370        O  0.92356696  0.15099661  0.57007371    -0.66700
O371        O  0.94220228  0.12452362  0.60362956    -0.53900
C372        C  0.92704971  0.14446198  0.59517216     0.73300
Zr373      Zr  0.93587890  0.13338930  0.52537264     2.77500
O374        O  0.93923745  0.18300972  0.52475400    -0.97400
O375        O  0.88631809  0.13191489  0.52658332    -0.78300
Zr376      Zr  0.01560288  0.13148060  0.52711023     2.70100
O377        O  0.01497219  0.18109631  0.53008399    -0.79500
O378        O  0.06509811  0.12829995  0.52616388    -0.98600
Zr379      Zr  0.97338404  0.09206103  0.58078198     2.21500
Zr380      Zr  0.97669792  0.09170657  0.47235115     2.11100
O381        O  0.97640215  0.13259076  0.49918814    -2.47300
O382        O  0.97504646  0.13254307  0.55345621    -0.79300
O383        O  0.93557099  0.09311051  0.49865296    -0.71500
O384        O  0.01434773  0.09136318  0.55408556    -2.32500
O385        O  0.93353134  0.09332485  0.55264077    -2.28700
O386        O  0.01643376  0.09103845  0.50040144    -0.73300
H387        H  0.97452041  0.03526862  0.48824268     0.78700
H388        H  0.03017231  0.09118154  0.56572040     0.79800
H389        H  0.97667300  0.14857918  0.48772110     0.82000
H390        H  0.91721576  0.09381995  0.56376212     0.79700
H391        H  0.06865223  0.06759598  0.53762315     0.42700
H392        H  0.06912072  0.11440274  0.51207927     0.41700
H393        H  0.99885225  0.18538231  0.54150155     0.41300
H394        H  0.95149388  0.18728531  0.50928952     0.39300
H395        H  0.88152203  0.11603764  0.51510547     0.42400
H396        H  0.87898214  0.06203121  0.54400502     0.37200
H397        H  0.94197976  0.99905936  0.50516174     0.43300
H398        H  0.02652052  0.99455785  0.53443229     0.39700
H399        H  0.92104927  0.18937615  0.51881943     0.44600
H400        H  0.87794902  0.03691927  0.52427539     0.43400
H401        H  0.99598983  0.99791940  0.54330114     0.43500
H402        H  0.07118789  0.14573741  0.51799041     0.43900
C403        C  0.00141217  0.42909940  0.28232111    -0.10600
C404        C  0.97654623  0.43749168  0.27124592    -0.04400
C405        C  0.95348676  0.42110428  0.27270978    -0.10600
C406        C  0.95277727  0.39935689  0.29143887     0.10400
C407        C  0.97678803  0.39260998  0.30613803    -0.02400
C408        C  0.00145951  0.40694368  0.30096050     0.10200
C409        C  0.02545106  0.39847391  0.31409228    -0.12400
C410        C  0.02536106  0.37621428  0.33193182    -0.12400
C411        C  0.00121830  0.36184434  0.33740850     0.10200
C412        C  0.97661169  0.37017877  0.32439984    -0.02400
C413        C  0.92898259  0.38405502  0.29553796    -0.12500
C414        C  0.92846483  0.36272379  0.31430880    -0.12500
C415        C  0.95202018  0.35541803  0.32876809     0.10400
C416        C  0.95193912  0.33348233  0.34730858    -0.10600
C417        C  0.97606242  0.32606664  0.36019013    -0.04400
C418        C  0.00072886  0.33921476  0.35539750    -0.10600
H419        H  0.04443134  0.40921826  0.31071357     0.07600
H420        H  0.04428169  0.37043683  0.34164186     0.07600
H421        H  0.91045475  0.38892909  0.28465682     0.07800
H422        H  0.90950941  0.35183623  0.31730041     0.07800
H423        H  0.97626362  0.45383056  0.25633836     0.04300
H424        H  0.97601957  0.30786521  0.37281117     0.04300
C425        C  0.30937309  0.06846145  0.27695712    -0.10600
C426        C  0.31943351  0.09416792  0.26980410    -0.04400
C427        C  0.30362642  0.11754524  0.27336880    -0.10600
C428        C  0.28148534  0.11699247  0.29156633     0.10400
C429        C  0.27407718  0.09181989  0.30381406    -0.02400
C430        C  0.28695849  0.06715462  0.29537100     0.10200
C431        C  0.27692939  0.04216468  0.30535774    -0.12400
C432        C  0.25528795  0.04144484  0.32408389    -0.12400
C433        C  0.24343007  0.06571906  0.33372386     0.10200
C434        C  0.25250019  0.09112853  0.32298880    -0.02400
C435        C  0.26651528  0.14069682  0.29757345    -0.12500
C436        C  0.24543960  0.14008621  0.31671350    -0.12500
C437        C  0.23873435  0.11570756  0.33014261     0.10400
C438        C  0.21842578  0.11486240  0.35044885    -0.10600
C439        C  0.21392749  0.09063466  0.36452155    -0.04400
C440        C  0.22288885  0.06578367  0.35403657    -0.10600
H441        H  0.28622216  0.02307853  0.29916694     0.07600
H442        H  0.24848044  0.02186898  0.33172650     0.07600
H443        H  0.27164011  0.15998696  0.28810180     0.07800
H444        H  0.23487046  0.15892119  0.32145500     0.07800
H445        H  0.33621610  0.09557027  0.25541663     0.04300
H446        H  0.19831976  0.09043792  0.38030818     0.04300
C447        C  0.21662431  0.40726818  0.99890818    -0.10600
C448        C  0.20146847  0.41149224  0.02258441    -0.04400
C449        C  0.20707940  0.39808311  0.04686566    -0.10600
C450        C  0.23077768  0.38187159  0.04875564     0.10400
C451        C  0.24699798  0.37768815  0.02498969    -0.02400
C452        C  0.23909502  0.38918439  0.99958684     0.10200
C453        C  0.25373226  0.38214026  0.97591908    -0.12400
C454        C  0.27609020  0.36441913  0.97721591    -0.12400
C455        C  0.28538510  0.35465127  0.00238520     0.10200
C456        C  0.27078150  0.36140597  0.02649154    -0.02400
C457        C  0.23843483  0.36937126  0.07330111    -0.12500
C458        C  0.26227429  0.35385240  0.07484279    -0.12500
C459        C  0.27891078  0.35016250  0.05181768     0.10400
C460        C  0.30338116  0.33512002  0.05317826    -0.10600
C461        C  0.31987260  0.33305665  0.03004681    -0.04400
C462        C  0.30915336  0.33849153  0.00436982    -0.10600
H463        H  0.24793576  0.39026269  0.95628236     0.07600
H464        H  0.28689834  0.35938770  0.95860806     0.07600
H465        H  0.22625969  0.37188681  0.09155214     0.07800
H466        H  0.26792009  0.34511209  0.09427164     0.07800
H467        H  0.18352095  0.42447884  0.02171215     0.04300
H468        H  0.33801355  0.32034145  0.03126065     0.04300
C469        C  0.64865819  0.06288492  0.27094389    -0.10600
C470        C  0.64011575  0.08801878  0.26082802    -0.04400
C471        C  0.65140544  0.11272676  0.26909596    -0.10600
C472        C  0.67188794  0.11253119  0.28926841     0.10400
C473        C  0.67955012  0.08726169  0.30146680    -0.02400
C474        C  0.66812101  0.06228320  0.29210906     0.10200
C475        C  0.67655161  0.03759615  0.30399628    -0.12400
C476        C  0.69569724  0.03732501  0.32501485    -0.12400
C477        C  0.70737088  0.06169678  0.33448766     0.10200
C478        C  0.69951823  0.08688498  0.32226370    -0.02400
C479        C  0.68508232  0.13663085  0.29733262    -0.12500
C480        C  0.70574906  0.13600918  0.31673999    -0.12500
C481        C  0.71288923  0.11150066  0.32963563     0.10400
C482        C  0.73318970  0.11072434  0.34974773    -0.10600
C483        C  0.73741141  0.08683295  0.36435959    -0.04400
C484        C  0.72683393  0.06183824  0.35580438    -0.10600
H485        H  0.66797464  0.01836618  0.29738772     0.07600
H486        H  0.70119027  0.01791056  0.33399573     0.07600
H487        H  0.67958074  0.15613689  0.28858359     0.07800
H488        H  0.71559387  0.15498420  0.32222436     0.07800
H489        H  0.62623450  0.08818100  0.24368303     0.04300
H490        H  0.75327819  0.08712571  0.37970857     0.04300
C491        C  0.95562385  0.77118072  0.26321363    -0.10600
C492        C  0.98060450  0.75991228  0.25571926    -0.04400
C493        C  0.00523092  0.76781797  0.26729649    -0.10600
C494        C  0.00494212  0.78757482  0.28831653     0.10400
C495        C  0.97962753  0.79940832  0.29650329    -0.02400
C496        C  0.95491231  0.79163903  0.28349022     0.10200
C497        C  0.93044643  0.80471642  0.29085194    -0.12400
C498        C  0.93020687  0.82560412  0.31017689    -0.12400
C499        C  0.95420863  0.83319259  0.32359790     0.10200
C500        C  0.97913262  0.81973421  0.31708197    -0.02400
C501        C  0.02902449  0.79585715  0.30125499    -0.12500
C502        C  0.02843620  0.81544957  0.32194124    -0.12500
C503        C  0.00379715  0.82766874  0.33009150     0.10400
C504        C  0.00291570  0.84768914  0.35092356    -0.10600
C505        C  0.97781329  0.85892745  0.35821281    -0.04400
C506        C  0.95425613  0.85398857  0.34341334    -0.10600
H507        H  0.91132992  0.79899999  0.28154648     0.07600
H508        H  0.91099483  0.83539635  0.31504773     0.07600
H509        H  0.04845241  0.78693976  0.29564370     0.07800
H510        H  0.04741904  0.82090429  0.33167721     0.07800
H511        H  0.98111178  0.74600992  0.23851372     0.04300
H512        H  0.97716100  0.87516334  0.37326929     0.04300
C513        C  0.30205428  0.11874910  0.78228146    -0.10600
C514        C  0.31276057  0.09374275  0.79048530    -0.04400
C515        C  0.30332786  0.06882331  0.78072197    -0.10600
C516        C  0.28268871  0.06868461  0.76070139     0.10400
C517        C  0.27197499  0.09396270  0.75112475    -0.02400
C518        C  0.28152767  0.11912960  0.76209093     0.10200
C519        C  0.27026067  0.14374660  0.75269671    -0.12400
C520        C  0.24976358  0.14382144  0.73301793    -0.12400
C521        C  0.23964654  0.11926757  0.72230142     0.10200
C522        C  0.25085870  0.09401259  0.73140957    -0.02400
C523        C  0.27236865  0.04412250  0.75022227    -0.12500
C524        C  0.25139245  0.04415957  0.73111412    -0.12500
C525        C  0.24026720  0.06876679  0.72160403     0.10400
C526        C  0.21873243  0.06902578  0.70254884    -0.10600
C527        C  0.20882765  0.09399607  0.69341501    -0.04400
C528        C  0.21846733  0.11900098  0.70280291    -0.10600
H529        H  0.27743876  0.16314418  0.76039584     0.07600
H530        H  0.24185032  0.16328442  0.72620764     0.07600
H531        H  0.28050988  0.02466203  0.75676789     0.07800
H532        H  0.24402288  0.02474769  0.72363765     0.07800
H533        H  0.32698266  0.09354377  0.80734496     0.04300
H534        H  0.19111382  0.09393745  0.68024862     0.04300
C535        C  0.94641736  0.42263321  0.77736011    -0.10600
C536        C  0.97147194  0.43129695  0.78757933    -0.04400
C537        C  0.99561044  0.41741224  0.78204472    -0.10600
C538        C  0.99598488  0.39716195  0.76163734     0.10400
C539        C  0.97108730  0.38953724  0.74896034    -0.02400
C540        C  0.94607359  0.40171449  0.75742002     0.10200
C541        C  0.92155084  0.39259830  0.74588936    -0.12400
C542        C  0.92143296  0.37187976  0.72635538    -0.12400
C543        C  0.94584224  0.35965189  0.71762823     0.10200
C544        C  0.97100628  0.36857398  0.72900802    -0.02400
C545        C  0.02032438  0.38428865  0.75375819    -0.12500
C546        C  0.02039680  0.36429634  0.73350935    -0.12500
C547        C  0.99599306  0.35588714  0.72119966     0.10400
C548        C  0.99561495  0.33490460  0.70145509    -0.10600
C549        C  0.97075342  0.32697480  0.69035617    -0.04400
C550        C  0.94598495  0.33855210  0.69795014    -0.10600
H551        H  0.90227839  0.40168399  0.75176011     0.07600
H552        H  0.90207566  0.36562350  0.71791445     0.07600
H553        H  0.03953009  0.39002380  0.76289803     0.07800
H554        H  0.03973068  0.35537373  0.72761294     0.07800
H555        H  0.97182100  0.44642159  0.80373729     0.04300
H556        H  0.97038009  0.30937550  0.67693973     0.04300
C557        C  0.22267168  0.75876891  0.99419890    -0.10600
C558        C  0.21743953  0.74472816  0.01829953    -0.04400
C559        C  0.22290750  0.75623812  0.04377407    -0.10600
C560        C  0.23976034  0.77976453  0.04496102     0.10400
C561        C  0.24790396  0.79276475  0.02035663    -0.02400
C562        C  0.23878822  0.78254720  0.99486976     0.10200
C563        C  0.24582037  0.79636437  0.97083079    -0.12400
C564        C  0.26206026  0.81971088  0.97162754    -0.12400
C565        C  0.27087766  0.83046786  0.99657684     0.10200
C566        C  0.26354453  0.81709250  0.02130241    -0.02400
C567        C  0.24835303  0.79078725  0.06995528    -0.12500
C568        C  0.26406427  0.81458219  0.07093068    -0.12500
C569        C  0.27156861  0.82821611  0.04693825     0.10400
C570        C  0.28668816  0.85283860  0.04744596    -0.10600
C571        C  0.29270887  0.86574845  0.02300442    -0.04400
C572        C  0.28651236  0.85454149  0.99782462    -0.10600
H573        H  0.23918497  0.78881105  0.95122506     0.07600
H574        H  0.26732675  0.82956621  0.95260301     0.07600
H575        H  0.24302104  0.78089287  0.08894554     0.07800
H576        H  0.27011638  0.82242013  0.09060423     0.07800
H577        H  0.20382298  0.72735326  0.01701790     0.04300
H578        H  0.30321411  0.88526310  0.02355305     0.04300
C579        C  0.73060012  0.41350536  0.00484063    -0.10600
C580        C  0.73497427  0.42701743  0.02934500    -0.04400
C581        C  0.72534859  0.41658603  0.05402136    -0.10600
C582        C  0.70566492  0.39540670  0.05340410     0.10400
C583        C  0.69717698  0.38484410  0.02778272    -0.02400
C584        C  0.71067898  0.39296185  0.00346611     0.10200
C585        C  0.70425117  0.38008299  0.97876715    -0.12400
C586        C  0.68363700  0.36051736  0.97761556    -0.12400
C587        C  0.66898338  0.35336549  0.00113642     0.10200
C588        C  0.67637482  0.36493359  0.02660142    -0.02400
C589        C  0.69433311  0.38446198  0.07736745    -0.12500
C590        C  0.67406362  0.36439645  0.07618453    -0.12500
C591        C  0.66423517  0.35512663  0.05101082     0.10400
C592        C  0.64254397  0.33627815  0.04923529    -0.10600
C593        C  0.63213742  0.32962435  0.02374285    -0.04400
C594        C  0.64717525  0.33472714  0.00017513    -0.10600
H595        H  0.71465844  0.38561919  0.96009783     0.07600
H596        H  0.67868313  0.35154599  0.95810560     0.07600
H597        H  0.70067887  0.39182631  0.09712872     0.07800
H598        H  0.66540225  0.35684559  0.09503763     0.07800
H599        H  0.75055864  0.44272862  0.02955444     0.04300
H600        H  0.61573819  0.31475290  0.02270267     0.04300
C601        C  0.95383813  0.75319445  0.76976539    -0.10600
C602        C  0.97935564  0.74247203  0.77663559    -0.04400
C603        C  0.00239380  0.75902214  0.77618313    -0.10600
C604        C  0.00246673  0.78255448  0.75971980     0.10400
C605        C  0.97800124  0.79030412  0.74641340    -0.02400
C606        C  0.95316171  0.77669388  0.75273652     0.10200
C607        C  0.92867547  0.78690127  0.74186740    -0.12400
C608        C  0.92871174  0.80928878  0.72403676    -0.12400
C609        C  0.95327658  0.82182609  0.71630717     0.10200
C610        C  0.97809092  0.81270844  0.72822390    -0.02400
C611        C  0.02607444  0.79834583  0.75610436    -0.12500
C612        C  0.02631059  0.82016797  0.73774384    -0.12500
C613        C  0.00282740  0.82689281  0.72289985     0.10400
C614        C  0.00302394  0.84733328  0.70268677    -0.10600
C615        C  0.97949827  0.85233602  0.68778788    -0.04400
C616        C  0.95427070  0.84295697  0.69664749    -0.10600
H617        H  0.90947633  0.77704097  0.74649087     0.07600
H618        H  0.90956471  0.81609698  0.71548402     0.07600
H619        H  0.04475213  0.79311405  0.76656950     0.07800
H620        H  0.04515546  0.83121127  0.73456843     0.07800
H621        H  0.98047444  0.72440894  0.78934205     0.04300
H622        H  0.98003159  0.86822456  0.67231962     0.04300
C623        C  0.64519111  0.11058869  0.77719663    -0.10600
C624        C  0.62923608  0.08711889  0.77869218    -0.04400
C625        C  0.64036006  0.06176846  0.77199702    -0.10600
C626        C  0.66397357  0.06082371  0.75540210     0.10400
C627        C  0.67744207  0.08558881  0.74866721    -0.02400
C628        C  0.66902686  0.11040523  0.76106786     0.10200
C629        C  0.68462486  0.13409577  0.75715551    -0.12400
C630        C  0.70730486  0.13384381  0.73985763    -0.12400
C631        C  0.71500952  0.10985358  0.72614778     0.10200
C632        C  0.70037575  0.08526591  0.73109544    -0.02400
C633        C  0.67425665  0.03607263  0.74523270    -0.12500
C634        C  0.69622070  0.03580765  0.72693735    -0.12500
C635        C  0.70917862  0.06021067  0.71918105     0.10400
C636        C  0.73070136  0.06061745  0.69984918    -0.10600
C637        C  0.74314167  0.08544189  0.69376261    -0.04400
C638        C  0.73718837  0.10934108  0.70784237    -0.10600
H639        H  0.67883988  0.15311105  0.76684416     0.07600
H640        H  0.71845969  0.15265616  0.73683160     0.07600
H641        H  0.66452103  0.01694201  0.75044792     0.07800
H642        H  0.70274170  0.01641966  0.71856909     0.07800
H643        H  0.61135481  0.08760987  0.79183570     0.04300
H644        H  0.76020864  0.08574616  0.67961281     0.04300
C645        C  0.73221096  0.76252472  0.04583100    -0.10600
C646        C  0.74127839  0.75159762  0.02126569    -0.04400
C647        C  0.73780204  0.76583060  0.99700500    -0.10600
C648        C  0.71762156  0.78642266  0.99568787     0.10400
C649        C  0.70401330  0.79427116  0.02010822    -0.02400
C650        C  0.71287868  0.78382433  0.04558136     0.10200
C651        C  0.70218825  0.79483778  0.06976320    -0.12400
C652        C  0.68156987  0.81454036  0.06894661    -0.12400
C653        C  0.67093970  0.82338272  0.04394290     0.10200
C654        C  0.68273426  0.81372551  0.01927073    -0.02400
C655        C  0.71060219  0.79926727  0.97111990    -0.12500
C656        C  0.68904178  0.81805529  0.97019572    -0.12500
C657        C  0.67435394  0.82481092  0.99391200     0.10400
C658        C  0.65159510  0.84254058  0.99337531    -0.10600
C659        C  0.63761789  0.84815868  0.01752558    -0.04400
C660        C  0.64890628  0.84182322  0.04269600    -0.10600
H661        H  0.70918403  0.78766339  0.08938354     0.07600
H662        H  0.67324519  0.82207940  0.08796844     0.07600
H663        H  0.72105534  0.79403323  0.95237755     0.07800
H664        H  0.68347531  0.82679801  0.95074773     0.07800
H665        H  0.75643029  0.73537477  0.02184049     0.04300
H666        H  0.62087723  0.86273028  0.01697813     0.04300
C667        C  0.02488919  0.32435617  0.36621048    -0.05000
C668        C  0.04044055  0.30911794  0.34759059    -0.04900
C669        C  0.05129322  0.28380410  0.35511546    -0.23000
C670        C  0.04635010  0.27323171  0.38124439     0.19200
C671        C  0.03370439  0.28978435  0.40108165     0.16400
C672        C  0.02420041  0.31586942  0.39372765    -0.18100
C673        C  0.02826097  0.27889962  0.42702301    -0.19900
C674        C  0.03397205  0.25142466  0.43277346    -0.12500
C675        C  0.04543751  0.23434276  0.41277145     0.04200
C676        C  0.05202235  0.24579267  0.38714937    -0.24600
H677        H  0.04113376  0.31499976  0.32634628     0.09300
H678        H  0.06136276  0.27146192  0.33977118     0.12900
H679        H  0.01206664  0.32742647  0.40819930     0.12800
H680        H  0.01865937  0.29136030  0.44256260     0.12600
H681        H  0.02927966  0.24353988  0.45282690     0.13100
H682        H  0.06028720  0.23302483  0.37111191     0.15100
C683        C  0.10317455  0.15374365  0.39359797    -0.05000
C684        C  0.10013640  0.13199203  0.37534609    -0.04900
C685        C  0.12204488  0.12358250  0.35920241    -0.23000
C686        C  0.14749846  0.13632804  0.36164154     0.19200
C687        C  0.15098219  0.15795605  0.38026596     0.16400
C688        C  0.12866324  0.16677537  0.39587230    -0.18100
C689        C  0.17697889  0.16948894  0.38375534    -0.19900
C690        C  0.19976634  0.15766865  0.37109457    -0.12500
C691        C  0.19644734  0.13525711  0.35372375     0.04200
C692        C  0.17000156  0.12632110  0.34730974    -0.24600
H693        H  0.08058328  0.12205497  0.37301495     0.09300
H694        H  0.11920235  0.10682319  0.34512999     0.12900
H695        H  0.13113723  0.18351474  0.41008261     0.12800
H696        H  0.17995797  0.18619296  0.39787762     0.12600
H697        H  0.21999427  0.16451654  0.37654066     0.13100
H698        H  0.16750393  0.10870790  0.33416354     0.15100
C699        C  0.20401735  0.04302000  0.36026389    -0.05000
C700        C  0.20637508  0.02964742  0.38542317    -0.04900
C701        C  0.18300225  0.02130047  0.39971008    -0.23000
C702        C  0.15692881  0.02744812  0.38961987     0.19200
C703        C  0.15447035  0.03929513  0.36354775     0.16400
C704        C  0.17800494  0.04530529  0.34838102    -0.18100
C705        C  0.12864566  0.04683285  0.35388589    -0.19900
C706        C  0.10541022  0.04278084  0.36993771    -0.12500
C707        C  0.10751371  0.03069291  0.39569703     0.04200
C708        C  0.13334179  0.02278860  0.40536425    -0.24600
H709        H  0.22602380  0.02829642  0.39529452     0.09300
H710        H  0.18530401  0.01213882  0.41963717     0.12900
H711        H  0.17596516  0.05623453  0.32928945     0.12800
H712        H  0.12644113  0.05604298  0.33396814     0.12600
H713        H  0.08560107  0.04802858  0.36179023     0.13100
H714        H  0.13493488  0.01274840  0.42495761     0.15100
C715        C  0.02676673  0.86335289  0.36108443    -0.05000
C716        C  0.04074118  0.87976617  0.34223585    -0.04900
C717        C  0.05101108  0.90517090  0.35007208    -0.23000
C718        C  0.04693721  0.91470250  0.37673315     0.19200
C719        C  0.03575258  0.89710891  0.39653377     0.16400
C720        C  0.02712042  0.87088835  0.38883706    -0.18100
C721        C  0.03091722  0.90696999  0.42298255    -0.19900
C722        C  0.03613599  0.93433114  0.42947159    -0.12500
C723        C  0.04659811  0.95226430  0.40973257     0.04200
C724        C  0.05225089  0.94201037  0.38342121    -0.24600
H725        H  0.04061868  0.87463630  0.32078894     0.09300
H726        H  0.05991155  0.91831955  0.33470976     0.12900
H727        H  0.01628882  0.85835711  0.40349422     0.12800
H728        H  0.02230352  0.89373950  0.43843321     0.12600
H729        H  0.03211865  0.94141782  0.44997108     0.13100
H730        H  0.05982221  0.95557347  0.36770832     0.15100
C731        C  0.83546676  0.02338602  0.40830432    -0.05000
C732        C  0.81763637  0.03147646  0.42926840    -0.04900
C733        C  0.78967476  0.03463783  0.42425825    -0.23000
C734        C  0.77903919  0.02992721  0.39814209     0.19200
C735        C  0.79659562  0.02108003  0.37714312     0.16400
C736        C  0.82450392  0.01806255  0.38227351    -0.18100
C737        C  0.78627150  0.01708229  0.35084743    -0.19900
C738        C  0.75985418  0.02558312  0.34451862    -0.12500
C739        C  0.74334358  0.03783997  0.36449642     0.04200
C740        C  0.75187009  0.03658936  0.39193858    -0.24600
H741        H  0.82524775  0.03520170  0.44957769     0.09300
H742        H  0.77650122  0.04153607  0.44062246     0.12900
H743        H  0.83784817  0.01252868  0.36553361     0.12800
H744        H  0.79940927  0.00982698  0.33460181     0.12600
H745        H  0.75394092  0.02617307  0.32331010     0.13100
H746        H  0.73917971  0.04585981  0.40753212     0.15100
C747        C  0.91732060  0.96892763  0.38753532    -0.05000
C748        C  0.93690644  0.97232265  0.36699063    -0.04900
C749        C  0.94411910  0.95034997  0.35022743    -0.23000
C750        C  0.93219262  0.92457876  0.35415532     0.19200
C751        C  0.91272160  0.92088499  0.37502985     0.16400
C752        C  0.90522059  0.94314631  0.39136444    -0.18100
C753        C  0.90196142  0.89475683  0.37990347    -0.19900
C754        C  0.91263354  0.87202116  0.36621358    -0.12500
C755        C  0.93316665  0.87538299  0.34659540     0.04200
C756        C  0.94103431  0.90198738  0.33902555    -0.24600
H757        H  0.94590602  0.99216590  0.36335593     0.09300
H758        H  0.95928453  0.95340679  0.33443625     0.12900
H759        H  0.88992455  0.94052217  0.40713532     0.12800
H760        H  0.88695137  0.89163484  0.39582623     0.12600
H761        H  0.90679887  0.85174460  0.37275993     0.13100
H762        H  0.95738773  0.90456692  0.32432336     0.15100
C763        C  0.91038793  0.22606622  0.40096442    -0.05000
C764        C  0.91396824  0.24591507  0.42118180    -0.04900
C765        C  0.91680347  0.27338303  0.41405526    -0.23000
C766        C  0.91671123  0.28125769  0.38658196     0.19200
C767        C  0.91321800  0.26140724  0.36607438     0.16400
C768        C  0.90989406  0.23402406  0.37341266    -0.18100
C769        C  0.91464545  0.26908718  0.33857377    -0.19900
C770        C  0.92302117  0.29542653  0.33155598    -0.12500
C771        C  0.92899236  0.31450259  0.35198407     0.04200
C772        C  0.92274835  0.30816312  0.37922995    -0.24600
H773        H  0.91392238  0.24024290  0.44248434     0.09300
H774        H  0.91974135  0.28837827  0.42998210     0.12900
H775        H  0.90739109  0.21873562  0.35765700     0.12800
H776        H  0.91178925  0.25411376  0.32260598     0.12600
H777        H  0.92796550  0.29980103  0.31049621     0.13100
H778        H  0.92759087  0.32285483  0.39500309     0.15100
C779        C  0.85060157  0.14728363  0.38769133    -0.05000
C780        C  0.85283939  0.12632197  0.36843257    -0.04900
C781        C  0.83017066  0.11860070  0.35312951    -0.23000
C782        C  0.80483772  0.13132028  0.35742066     0.19200
C783        C  0.80234773  0.15235050  0.37691422     0.16400
C784        C  0.82540945  0.16057439  0.39151337    -0.18100
C785        C  0.77659565  0.16376560  0.38241576    -0.19900
C786        C  0.75317272  0.15248191  0.37074429    -0.12500
C787        C  0.75548026  0.13080282  0.35228655     0.04200
C788        C  0.78154622  0.12181259  0.34415995    -0.24600
H789        H  0.87228203  0.11646022  0.36477030     0.09300
H790        H  0.83229705  0.10228135  0.33838106     0.12900
H791        H  0.82378551  0.17704805  0.40617846     0.12800
H792        H  0.77437270  0.17987498  0.39737126     0.12600
H793        H  0.73328725  0.15911160  0.37775645     0.13100
H794        H  0.78327159  0.10453503  0.33042794     0.15100
C795        C  0.03774256  0.22659587  0.64847967    -0.05000
C796        C  0.02835082  0.24428960  0.62811520    -0.04900
C797        C  0.02393761  0.27186631  0.63386981    -0.23000
C798        C  0.02827724  0.28196617  0.66023384     0.19200
C799        C  0.03726881  0.26421220  0.68096908     0.16400
C800        C  0.04230767  0.23675235  0.67486205    -0.18100
C801        C  0.03971124  0.27393329  0.70772229    -0.19900
C802        C  0.02988778  0.29988943  0.71445782    -0.12500
C803        C  0.01889553  0.31684748  0.69422655     0.04200
C804        C  0.02136217  0.30889501  0.66675339    -0.24600
H805        H  0.02521038  0.23693745  0.60757403     0.09300
H806        H  0.01658382  0.28515905  0.61786668     0.12900
H807        H  0.04942542  0.22310605  0.69069946     0.12800
H808        H  0.04675797  0.26059663  0.72382437     0.12600
H809        H  0.02804944  0.30535398  0.73574342     0.13100
H810        H  0.01289261  0.32194765  0.65106637     0.15100
C811        C  0.11130009  0.15847662  0.64771970    -0.05000
C812        C  0.12963192  0.14978422  0.62749809    -0.04900
C813        C  0.15732192  0.14648637  0.63345058    -0.23000
C814        C  0.16701932  0.15124569  0.65990037     0.19200
C815        C  0.14882674  0.16025662  0.68032686     0.16400
C816        C  0.12122052  0.16410525  0.67403602    -0.18100
C817        C  0.15823943  0.16365304  0.70707355    -0.19900
C818        C  0.18426632  0.15447757  0.71425329    -0.12500
C819        C  0.20148587  0.14278372  0.69455382     0.04200
C820        C  0.19389929  0.14449691  0.66690381    -0.24600
H821        H  0.12261608  0.14607159  0.60695787     0.09300
H822        H  0.17100228  0.13943656  0.61756791     0.12900
H823        H  0.10723664  0.17084630  0.68981227     0.12800
H824        H  0.14461207  0.17087286  0.72292489     0.12600
H825        H  0.18948265  0.15333496  0.73562286     0.13100
H826        H  0.20710884  0.13545996  0.65159542     0.15100
C827        C  0.90164002  0.23486851  0.63913607    -0.05000
C828        C  0.91126691  0.25300070  0.61915020    -0.04900
C829        C  0.91620239  0.28045657  0.62562726    -0.23000
C830        C  0.91189075  0.29012803  0.65227548     0.19200
C831        C  0.90115057  0.27236246  0.67214141     0.16400
C832        C  0.89619497  0.24505186  0.66549370    -0.18100
C833        C  0.89748672  0.28159559  0.69895507    -0.19900
C834        C  0.90795323  0.30684939  0.70692421    -0.12500
C835        C  0.92171852  0.32335850  0.68805498     0.04200
C836        C  0.92081212  0.31620348  0.66016806    -0.24600
H837        H  0.91512781  0.24593530  0.59861118     0.09300
H838        H  0.92438912  0.29384325  0.61007973     0.12900
H839        H  0.88942623  0.23135523  0.68144832     0.12800
H840        H  0.88888373  0.26825518  0.71432315     0.12600
H841        H  0.90849397  0.31172286  0.72842084     0.13100
H842        H  0.93152900  0.32881592  0.64549753     0.15100
C843        C  0.75738433  0.13135312  0.70382677    -0.05000
C844        C  0.75226382  0.15175426  0.68449564    -0.04900
C845        C  0.77389609  0.16367893  0.67013416    -0.23000
C846        C  0.80069163  0.15436985  0.67412687     0.19200
C847        C  0.80605716  0.13499891  0.69469092     0.16400
C848        C  0.78452617  0.12486828  0.71042852    -0.18100
C849        C  0.83247701  0.12442849  0.69775412    -0.19900
C850        C  0.85347246  0.13288191  0.68045180    -0.12500
C851        C  0.84845786  0.15240891  0.66025031     0.04200
C852        C  0.82202121  0.16319162  0.65724594    -0.24600
H853        H  0.73152778  0.15653021  0.67869552     0.09300
H854        H  0.76946327  0.17855127  0.65443946     0.12900
H855        H  0.78845810  0.10862492  0.72490992     0.12800
H856        H  0.83680216  0.10932922  0.71326461     0.12600
H857        H  0.87382645  0.12483753  0.68337032     0.13100
H858        H  0.81812096  0.17832621  0.64163023     0.15100
C859        C  0.91510929  0.95852531  0.65619640    -0.05000
C860        C  0.92475993  0.96042033  0.68295654    -0.04900
C861        C  0.92963971  0.93687299  0.69828802    -0.23000
C862        C  0.92507221  0.91093625  0.68705673     0.19200
C863        C  0.91543583  0.90870622  0.66009669     0.16400
C864        C  0.91015519  0.93256230  0.64493737    -0.18100
C865        C  0.91203016  0.88265429  0.64861371    -0.19900
C866        C  0.92057524  0.85927276  0.66274220    -0.12500
C867        C  0.93160769  0.86144164  0.68898895     0.04200
C868        C  0.93175694  0.88724574  0.70171972    -0.24600
H869        H  0.92759458  0.98023041  0.69231200     0.09300
H870        H  0.93710323  0.93895083  0.71891071     0.12900
H871        H  0.90188883  0.93103346  0.62456493     0.12800
H872        H  0.90471025  0.88051582  0.62795013     0.12600
H873        H  0.92118150  0.83989496  0.65214817     0.13100
H874        H  0.94117693  0.88926913  0.72156262     0.15100
C875        C  0.74537194  0.03637144  0.68889316    -0.05000
C876        C  0.76086749  0.02094618  0.70727825    -0.04900
C877        C  0.78612076  0.01024369  0.69936986    -0.23000
C878        C  0.79646342  0.01551227  0.67320644     0.19200
C879        C  0.77965764  0.02811246  0.65366309     0.16400
C880        C  0.75344537  0.03693308  0.66125371    -0.18100
C881        C  0.79037806  0.03431251  0.62783467    -0.19900
C882        C  0.81788147  0.02925020  0.62186564    -0.12500
C883        C  0.83510721  0.01755476  0.64147425     0.04200
C884        C  0.82390033  0.01027018  0.66699491    -0.24600
H885        H  0.75526884  0.02028133  0.72861471     0.09300
H886        H  0.79864710  0.00022251  0.71449562     0.12900
H887        H  0.74157835  0.04885712  0.64694758     0.12800
H888        H  0.77776483  0.04403883  0.61259094     0.12600
H889        H  0.82565854  0.03451808  0.60190262     0.13100
H890        H  0.83685113  0.00176997  0.68267290     0.15100
C891        C  0.20164465  0.04521215  0.69473060    -0.05000
C892        C  0.18462214  0.03383444  0.71474749    -0.04900
C893        C  0.15869384  0.02420370  0.70786953    -0.23000
C894        C  0.14925286  0.02648765  0.68099732     0.19200
C895        C  0.16728761  0.03513814  0.66032001     0.16400
C896        C  0.19393574  0.04290973  0.66716290    -0.18100
C897        C  0.15762383  0.03837861  0.63362729    -0.19900
C898        C  0.13009751  0.03396202  0.62761872    -0.12500
C899        C  0.11180135  0.02584713  0.64809106     0.04200
C900        C  0.12174939  0.02181347  0.67475172    -0.24600
H901        H  0.18993309  0.03550078  0.73606283     0.09300
H902        H  0.14520423  0.01726502  0.72394041     0.12900
H903        H  0.20692943  0.05179426  0.65161840     0.12800
H904        H  0.17120171  0.04507395  0.61753057     0.12600
H905        H  0.12317182  0.03657336  0.60688381     0.13100
H906        H  0.10786359  0.01582623  0.69088409     0.15100
C907        C  0.02380975  0.86883360  0.69957652    -0.05000
C908        C  0.04282681  0.86668306  0.67829641    -0.04900
C909        C  0.05166204  0.89011602  0.66452685    -0.23000
C910        C  0.04054955  0.91575229  0.67111397     0.19200
C911        C  0.02253826  0.91813235  0.69347625     0.16400
C912        C  0.01574073  0.89490397  0.70858250    -0.18100
C913        C  0.01002368  0.94328897  0.69916825    -0.19900
C914        C  0.01555143  0.96607942  0.68301345    -0.12500
C915        C  0.03397081  0.96412616  0.66126242     0.04200
C916        C  0.04642917  0.93889859  0.65534197    -0.24600
H917        H  0.04865232  0.84679103  0.67059180     0.09300
H918        H  0.06546409  0.88792427  0.64739641     0.12900
H919        H  0.00039952  0.89653507  0.72447732     0.12800
H920        H  0.99586172  0.94529644  0.71602936     0.12600
H921        H  0.00635921  0.98552653  0.68817583     0.13100
H922        H  0.06089473  0.93748360  0.63865526     0.15100
C923        C  0.30605746  0.13716934  0.25072439    -0.05000
C924        C  0.32475210  0.15869496  0.25224270    -0.04900
C925        C  0.33730778  0.16846657  0.22850862    -0.23000
C926        C  0.33256994  0.15550932  0.20342930     0.19200
C927        C  0.31283671  0.13463699  0.20178318     0.16400
C928        C  0.29836392  0.12707113  0.22509278    -0.18100
C929        C  0.30947106  0.12007513  0.17744413    -0.19900
C930        C  0.32556831  0.12614555  0.15478739    -0.12500
C931        C  0.34465767  0.14733070  0.15594862     0.04200
C932        C  0.34795621  0.16214341  0.18025072    -0.24600
H933        H  0.33132860  0.16624885  0.27185897     0.09300
H934        H  0.35240514  0.18448573  0.23011854     0.12900
H935        H  0.28438976  0.10994960  0.22405050     0.12800
H936        H  0.29469701  0.10372182  0.17606923     0.12600
H937        H  0.32236974  0.11506421  0.13598854     0.13100
H938        H  0.36254054  0.17872336  0.18101126     0.15100
C939        C  0.34588664  0.21794073  0.08617726    -0.05000
C940        C  0.32694073  0.21620392  0.06502387    -0.04900
C941        C  0.31100923  0.23870063  0.05819497    -0.23000
C942        C  0.31450232  0.26357608  0.07177866     0.19200
C943        C  0.33398966  0.26588715  0.09273825     0.16400
C944        C  0.34907946  0.24272289  0.10037587    -0.18100
C945        C  0.33873226  0.29154554  0.10469859    -0.19900
C946        C  0.32624171  0.31498403  0.09402185    -0.12500
C947        C  0.30750791  0.31262756  0.07267700     0.04200
C948        C  0.30023882  0.28663848  0.06319567    -0.24600
H949        H  0.32372700  0.19704990  0.05450478     0.09300
H950        H  0.29625272  0.23676586  0.04197797     0.12900
H951        H  0.36342504  0.24391890  0.11706011     0.12800
H952        H  0.35364895  0.29375120  0.12074309     0.12600
H953        H  0.33256918  0.33493994  0.10102872     0.13100
H954        H  0.28630282  0.28494818  0.04618137     0.15100
C955        C  0.35893224  0.02434261  0.16528182    -0.05000
C956        C  0.38027820  0.03387655  0.18173928    -0.04900
C957        C  0.37579012  0.03964790  0.20935724    -0.23000
C958        C  0.34974900  0.03640695  0.22092160     0.19200
C959        C  0.32824401  0.02671766  0.20459349     0.16400
C960        C  0.33299078  0.02061291  0.17705699    -0.18100
C961        C  0.30200486  0.02444515  0.21573184    -0.19900
C962        C  0.29645331  0.03442248  0.24182411    -0.12500
C963        C  0.31718320  0.04616872  0.25761805     0.04200
C964        C  0.34431831  0.04469126  0.24783995    -0.24600
H965        H  0.40055075  0.03643305  0.17334352     0.09300
H966        H  0.39254322  0.04719475  0.22151339     0.12900
H967        H  0.31627320  0.01353806  0.16455692     0.12800
H968        H  0.28530673  0.01693005  0.20348652     0.12600
H969        H  0.27538478  0.03565605  0.24832671     0.13100
H970        H  0.36055672  0.05366084  0.25976883     0.15100
C971        C  0.34967288  0.95423407  0.09276427    -0.05000
C972        C  0.36798366  0.93599938  0.08031908    -0.04900
C973        C  0.36020543  0.90917098  0.07452638    -0.23000
C974        C  0.33368665  0.90017114  0.08041258     0.19200
C975        C  0.31495811  0.91819036  0.09286709     0.16400
C976        C  0.32321770  0.94493623  0.09944656    -0.18100
C977        C  0.28790935  0.90959596  0.09700854    -0.19900
C978        C  0.27883063  0.88478322  0.08599198    -0.12500
C979        C  0.29693224  0.86769925  0.07176032     0.04200
C980        C  0.32491619  0.87434956  0.07167669    -0.24600
H981        H  0.38855539  0.94237904  0.07547741     0.09300
H982        H  0.37472564  0.89568345  0.06468022     0.12900
H983        H  0.30881198  0.95880985  0.10893521     0.12800
H984        H  0.27322834  0.92310730  0.10656791     0.12600
H985        H  0.25719294  0.88046054  0.08590543     0.13100
H986        H  0.33892437  0.86153489  0.06025003     0.15100
C987        C  0.36084079  0.02265041  0.88460846    -0.05000
C988        C  0.38073333  0.03286879  0.86674666    -0.04900
C989        C  0.37429727  0.03816964  0.83950520    -0.23000
C990        C  0.34767766  0.03399666  0.82992216     0.19200
C991        C  0.32764139  0.02339142  0.84764216     0.16400
C992        C  0.33443681  0.01746594  0.87466170    -0.18100
C993        C  0.30067611  0.02072263  0.83861591    -0.19900
C994        C  0.29291259  0.03190983  0.81364388    -0.12500
C995        C  0.31226182  0.04477717  0.79690848     0.04200
C996        C  0.34008362  0.04289736  0.80389226    -0.24600
H997        H  0.40130593  0.03643861  0.87378322     0.09300
H998        H  0.38987423  0.04645926  0.82619963     0.12900
H999        H  0.31883499  0.00975406  0.88831298     0.12800
H1000       H  0.28511293  0.01244685  0.85195081     0.12600
H1001       H  0.27140152  0.03337047  0.80900441     0.13100
H1002       H  0.35509362  0.05294347  0.79111275     0.15100
C1003       C  0.29745026  0.87014471  0.97448131    -0.05000
C1004       C  0.28009962  0.88857705  0.96123943    -0.04900
C1005       C  0.29022268  0.91351819  0.95176999    -0.23000
C1006       C  0.31749680  0.92064551  0.95655569     0.19200
C1007       C  0.33549083  0.90129077  0.96789423     0.16400
C1008       C  0.32566382  0.87544948  0.97497413    -0.18100
C1009       C  0.36231465  0.90888185  0.97426205    -0.19900
C1010       C  0.37121504  0.93556362  0.96955773    -0.12500
C1011       C  0.35355724  0.95482149  0.95798040     0.04200
C1012       C  0.32671891  0.94716696  0.95147725    -0.24600
H1013       H  0.25831018  0.88509901  0.96105883     0.09300
H1014       H  0.27622129  0.92815381  0.94296996     0.12900
H1015       H  0.33900279  0.86139843  0.98562411     0.12800
H1016       H  0.37622810  0.89433505  0.98334257     0.12600
H1017       H  0.39206989  0.94096338  0.97424790     0.13100
H1018       H  0.31292725  0.96205560  0.94271708     0.15100
C1019       C  0.31731113  0.31807761  0.98364400    -0.05000
C1020       C  0.34371133  0.31894490  0.97258115    -0.04900
C1021       C  0.35683558  0.29486575  0.96436437    -0.23000
C1022       C  0.34415538  0.26945795  0.96817195     0.19200
C1023       C  0.31706078  0.26855128  0.97796123     0.16400
C1024       C  0.30350337  0.29292498  0.98458887    -0.18100
C1025       C  0.30455984  0.24321720  0.98256611    -0.19900
C1026       C  0.31886627  0.21896867  0.97780968    -0.12500
C1027       C  0.34582746  0.21962324  0.96827895     0.04200
C1028       C  0.35827561  0.24494255  0.96310437    -0.24600
H1029       H  0.35501454  0.33790738  0.97256887     0.09300
H1030       H  0.37758944  0.29595666  0.95685210     0.12900
H1031       H  0.28346332  0.29199822  0.99394319     0.12800
H1032       H  0.28376350  0.24215947  0.98997672     0.12600
H1033       H  0.30861685  0.19961821  0.98072486     0.13100
H1034       H  0.37875796  0.24546067  0.95477038     0.15100
C1035       C  0.30965481  0.14202420  0.80020124    -0.05000
C1036       C  0.28974182  0.15205018  0.81821930    -0.04900
C1037       C  0.29704781  0.16100373  0.84422596    -0.23000
C1038       C  0.32424171  0.15917560  0.85282487     0.19200
C1039       C  0.34470778  0.15161474  0.83403714     0.16400
C1040       C  0.33739303  0.14485122  0.80726564    -0.18100
C1041       C  0.37168997  0.14836817  0.84301514    -0.19900
C1042       C  0.37819670  0.15189917  0.87054213    -0.12500
C1043       C  0.35793928  0.15927270  0.88942320     0.04200
C1044       C  0.33101834  0.16317237  0.88022907    -0.24600
H1045       H  0.26831601  0.14983181  0.81350699     0.09300
H1046       H  0.28113365  0.16695102  0.85839231     0.12900
H1047       H  0.35286560  0.13697750  0.79351574     0.12800
H1048       H  0.38760733  0.14232261  0.82889714     0.12600
H1049       H  0.39910344  0.14924663  0.87701341     0.13100
H1050       H  0.31510362  0.16851860  0.89465047     0.15100
C1051       C  0.63577440  0.31591783  0.07039014    -0.05000
C1052       C  0.61041910  0.31722455  0.08364327    -0.04900
C1053       C  0.59754801  0.29328882  0.09255037    -0.23000
C1054       C  0.60924197  0.26766908  0.08699902     0.19200
C1055       C  0.63522507  0.26632423  0.07458956     0.16400
C1056       C  0.64884677  0.29047395  0.06769793    -0.18100
C1057       C  0.64639942  0.24087599  0.06759536    -0.19900
C1058       C  0.63197177  0.21688695  0.07285698    -0.12500
C1059       C  0.60637948  0.21796150  0.08553738     0.04200
C1060       C  0.59515676  0.24338473  0.09281714    -0.24600
H1061       H  0.59957962  0.33645241  0.08496549     0.09300
H1062       H  0.57757848  0.29470302  0.10193136     0.12900
H1063       H  0.66795909  0.28928600  0.05657600     0.12800
H1064       H  0.66623441  0.23954342  0.05792243     0.12600
H1065       H  0.64118937  0.19738837  0.06793351     0.13100
H1066       H  0.57562037  0.24413953  0.10317853     0.15100
C1067       C  0.59459430  0.15691425  0.16400166    -0.05000
C1068       C  0.57452778  0.14912569  0.18288728    -0.04900
C1069       C  0.58134936  0.14481153  0.21021483    -0.23000
C1070       C  0.60845759  0.14760177  0.21890489     0.19200
C1071       C  0.62871236  0.15563552  0.20011188     0.16400
C1072       C  0.62161059  0.16047471  0.17295270    -0.18100
C1073       C  0.65602955  0.15697583  0.20837335    -0.19900
C1074       C  0.66365343  0.14689687  0.23385679    -0.12500
C1075       C  0.64389542  0.13643292  0.25175128     0.04200
C1076       C  0.61609869  0.13985069  0.24527814    -0.24600
H1077       H  0.55355618  0.14669147  0.17656768     0.09300
H1078       H  0.56560181  0.13843107  0.22435228     0.12900
H1079       H  0.63735521  0.16611168  0.15847628     0.12800
H1080       H  0.67176993  0.16334118  0.19422078     0.12600
H1081       H  0.68513086  0.14429324  0.23814826     0.13100
H1082       H  0.60076835  0.13171370  0.25900468     0.15100
C1083       C  0.60890438  0.21775427  0.96489377    -0.05000
C1084       C  0.62961893  0.21594952  0.98433636    -0.04900
C1085       C  0.64528537  0.23876382  0.99068077    -0.23000
C1086       C  0.63979964  0.26396594  0.97835363     0.19200
C1087       C  0.61857261  0.26622797  0.95913030     0.16400
C1088       C  0.60371921  0.24282379  0.95190418    -0.18100
C1089       C  0.61180681  0.29206226  0.94863054    -0.19900
C1090       C  0.62399399  0.31560155  0.95931550    -0.12500
C1091       C  0.64427560  0.31334691  0.97921754     0.04200
C1092       C  0.65368585  0.28733975  0.98676308    -0.24600
H1093       H  0.63421621  0.19660411  0.99397103     0.09300
H1094       H  0.66130429  0.23683550  0.00566901     0.12900
H1095       H  0.58790097  0.24409191  0.93661021     0.12800
H1096       H  0.59551269  0.29422167  0.93397038     0.12600
H1097       H  0.61602862  0.33546663  0.95382268     0.13100
H1098       H  0.66885110  0.28563571  0.00269951     0.15100
C1099       C  0.60628261  0.14568713  0.89596494    -0.05000
C1100       C  0.62453415  0.12373341  0.89739198    -0.04900
C1101       C  0.63916054  0.11566431  0.87438074    -0.23000
C1102       C  0.63497848  0.12881419  0.84940114     0.19200
C1103       C  0.61591426  0.15035577  0.84748685     0.16400
C1104       C  0.60214099  0.15913673  0.87102630    -0.18100
C1105       C  0.61040086  0.16201982  0.82193591    -0.19900
C1106       C  0.62223794  0.15106099  0.79831008    -0.12500
C1107       C  0.64090791  0.12947905  0.80021599     0.04200
C1108       C  0.64832048  0.11956823  0.82598905    -0.24600
H1109       H  0.62823351  0.11354402  0.91660013     0.09300
H1110       H  0.65358549  0.09901920  0.87607247     0.12900
H1111       H  0.58811936  0.17622760  0.87002753     0.12800
H1112       H  0.59561110  0.17834307  0.82006058     0.12600
H1113       H  0.61558110  0.15819719  0.77856182     0.13100
H1114       H  0.66203752  0.10223326  0.82737053     0.15100
C1115       C  0.64603751  0.86263093  0.97169758    -0.05000
C1116       C  0.62162371  0.86066382  0.95698625    -0.04900
C1117       C  0.60774608  0.88431331  0.94880801    -0.23000
C1118       C  0.61741206  0.91014781  0.95656299     0.19200
C1119       C  0.64265596  0.91213762  0.97017402     0.16400
C1120       C  0.65757101  0.88848287  0.97596719    -0.18100
C1121       C  0.65162379  0.93751519  0.97974919    -0.19900
C1122       C  0.63581426  0.96084185  0.97579018    -0.12500
C1123       C  0.61105618  0.95928151  0.96179789     0.04200
C1124       C  0.60197555  0.93392376  0.95193478    -0.24600
H1125       H  0.61196181  0.84099502  0.95429059     0.09300
H1126       H  0.58837614  0.88232896  0.93849191     0.12900
H1127       H  0.67595211  0.89008427  0.98807424     0.12800
H1128       H  0.67074142  0.93927735  0.99056547     0.12600
H1129       H  0.64338580  0.98037791  0.98275804     0.13100
H1130       H  0.58308638  0.93283100  0.94061607     0.15100
C1131       C  0.60723329  0.02934201  0.89150020    -0.05000
C1132       C  0.63429702  0.03850809  0.89070157    -0.04900
C1133       C  0.64793144  0.04165025  0.86592354    -0.23000
C1134       C  0.63461839  0.03606274  0.84138098     0.19200
C1135       C  0.60725296  0.02711364  0.84177265     0.16400
C1136       C  0.59378600  0.02344741  0.86693489    -0.18100
C1137       C  0.59378096  0.02272610  0.81695952    -0.19900
C1138       C  0.60637913  0.02987597  0.79227020    -0.12500
C1139       C  0.63304868  0.04032122  0.79195922     0.04200
C1140       C  0.64770960  0.04113074  0.81646888    -0.24600
H1141       H  0.64523589  0.04222226  0.90945010     0.09300
H1142       H  0.66886643  0.04864966  0.86595535     0.12900
H1143       H  0.57317327  0.01554828  0.86749632     0.12800
H1144       H  0.57282637  0.01581012  0.81677229     0.12600
H1145       H  0.59442299  0.02986582  0.77378871     0.13100
H1146       H  0.66799803  0.04990660  0.81649091     0.15100
C1147       C  0.59520588  0.01795311  0.16398258    -0.05000
C1148       C  0.57448734  0.02684347  0.18169600    -0.04900
C1149       C  0.58007800  0.03199136  0.20913835    -0.23000
C1150       C  0.60660041  0.02873085  0.21928376     0.19200
C1151       C  0.62748725  0.01927526  0.20183772     0.16400
C1152       C  0.62164166  0.01381143  0.17443025    -0.18100
C1153       C  0.65421707  0.01702957  0.21168843    -0.19900
C1154       C  0.66077175  0.02718386  0.23745619    -0.12500
C1155       C  0.64059218  0.03915497  0.25392028     0.04200
C1156       C  0.61310917  0.03721394  0.24577577    -0.24600
H1157       H  0.55389601  0.02964369  0.17435749     0.09300
H1158       H  0.56382420  0.03932038  0.22223043     0.12900
H1159       H  0.63796400  0.00731974  0.16097073     0.12800
H1160       H  0.67045558  0.00962376  0.19861837     0.12600
H1161       H  0.68204517  0.02872122  0.24304696     0.13100
H1162       H  0.59745771  0.04665830  0.25828342     0.15100
C1163       C  0.64226292  0.86180661  0.06423064    -0.05000
C1164       C  0.61838913  0.85889787  0.07974019    -0.04900
C1165       C  0.60536080  0.88195476  0.09064422    -0.23000
C1166       C  0.61526868  0.90823479  0.08481343     0.19200
C1167       C  0.63978306  0.91111432  0.06991383     0.16400
C1168       C  0.65376845  0.88785677  0.06099805    -0.18100
C1169       C  0.64892006  0.93717548  0.06241997    -0.19900
C1170       C  0.63384687  0.96029468  0.06953440    -0.12500
C1171       C  0.60975802  0.95772577  0.08467279     0.04200
C1172       C  0.60065608  0.93168633  0.09259592    -0.24600
H1173       H  0.60875542  0.83911297  0.08159171     0.09300
H1174       H  0.58649807  0.87936249  0.10187359     0.12900
H1175       H  0.67167476  0.89020061  0.04817829     0.12800
H1176       H  0.66751483  0.93964416  0.05071554     0.12600
H1177       H  0.64136259  0.98029342  0.06389859     0.13100
H1178       H  0.58219259  0.92979260  0.10463757     0.15100
C1179       C  0.04409985  0.47566478  0.17210628    -0.05000
C1180       C  0.03465905  0.49765961  0.18798029    -0.04900
C1181       C  0.03018918  0.49449802  0.21603081    -0.23000
C1182       C  0.03494927  0.46924202  0.22872751     0.19200
C1183       C  0.04545659  0.44739055  0.21323911     0.16400
C1184       C  0.04979458  0.45066546  0.18524567    -0.18100
C1185       C  0.04960436  0.42192935  0.22556574    -0.19900
C1186       C  0.03960859  0.41701094  0.25173036    -0.12500
C1187       C  0.02571944  0.43762751  0.26608084     0.04200
C1188       C  0.02674135  0.46457340  0.25579374    -0.24600
H1189       H  0.03061030  0.51729423  0.17874837     0.09300
H1190       H  0.02208607  0.51152713  0.22758941     0.12900
H1191       H  0.05627262  0.43308372  0.17351573     0.12800
H1192       H  0.05814654  0.40507537  0.21405718     0.12600
H1193       H  0.03934722  0.39613255  0.25893404     0.13100
H1194       H  0.01643105  0.48074660  0.26686716     0.15100
C1195       C  0.18624124  0.40187320  0.06844549    -0.05000
C1196       C  0.19126593  0.42013192  0.08980882    -0.04900
C1197       C  0.16960008  0.43400696  0.10231726    -0.23000
C1198       C  0.14286914  0.43068591  0.09266565     0.19200
C1199       C  0.13754477  0.41102492  0.07238891     0.16400
C1200       C  0.15910284  0.39567801  0.06156668    -0.18100
C1201       C  0.11121909  0.40873209  0.06152272    -0.19900
C1202       C  0.09040415  0.42625377  0.07020336    -0.12500
C1203       C  0.09540718  0.44583752  0.09037085     0.04200
C1204       C  0.12167353  0.44766895  0.10180253    -0.24600
H1205       H  0.21198667  0.42556577  0.09501285     0.09300
H1206       H  0.17400835  0.44897624  0.11791678     0.12900
H1207       H  0.15523000  0.38189148  0.04473835     0.12800
H1208       H  0.10691158  0.39387486  0.04578423     0.12600
H1209       H  0.07023989  0.42416943  0.06157441     0.13100
H1210       H  0.12571765  0.46280973  0.11736305     0.15100
C1211       C  0.11792913  0.47133327  0.95470037    -0.05000
C1212       C  0.13547390  0.48996765  0.96746446    -0.04900
C1213       C  0.16258271  0.48281609  0.97289278    -0.23000
C1214       C  0.17247072  0.45676408  0.96601157     0.19200
C1215       C  0.15539800  0.43834742  0.95213921     0.16400
C1216       C  0.12844680  0.44574827  0.94653510    -0.18100
C1217       C  0.16477707  0.41191868  0.94619083    -0.19900
C1218       C  0.18914763  0.40253013  0.95745050    -0.12500
C1219       C  0.20458915  0.41968261  0.97421466     0.04200
C1220       C  0.19785288  0.44767885  0.97552879    -0.24600
H1221       H  0.12819667  0.50995036  0.97348756     0.09300
H1222       H  0.17543025  0.49720164  0.98357841     0.12900
H1223       H  0.11519561  0.43073285  0.93730365     0.12800
H1224       H  0.15199966  0.39766544  0.93524289     0.12600
H1225       H  0.19382851  0.38094842  0.95624963     0.13100
H1226       H  0.20970404  0.46095074  0.98858584     0.15100
C1227       C  0.01684910  0.42101100  0.80310699    -0.05000
C1228       C  0.03691626  0.44111728  0.79994161    -0.04900
C1229       C  0.04858596  0.45344815  0.82288176    -0.23000
C1230       C  0.03927790  0.44674048  0.84916561     0.19200
C1231       C  0.02016103  0.42549334  0.85245429     0.16400
C1232       C  0.01011663  0.41195248  0.82948434    -0.18100
C1233       C  0.00978086  0.41951814  0.87844726    -0.19900
C1234       C  0.01782267  0.43484576  0.90102057    -0.12500
C1235       C  0.03679253  0.45598674  0.89807604     0.04200
C1236       C  0.04776639  0.46160546  0.87208552    -0.24600
H1237       H  0.04186256  0.44881963  0.77986548     0.09300
H1238       H  0.06332155  0.46964183  0.81999691     0.12900
H1239       H  0.99407402  0.39693406  0.83197967     0.12800
H1240       H  0.99506182  0.40329117  0.88124196     0.12600
H1241       H  0.00983781  0.42969652  0.92094923     0.13100
H1242       H  0.06269990  0.47773194  0.86976524     0.15100
C1243       C  0.84710487  0.45458184  0.96718492    -0.05000
C1244       C  0.84971785  0.43500360  0.98778847    -0.04900
C1245       C  0.82727800  0.41935823  0.99570464    -0.23000
C1246       C  0.80177836  0.42353245  0.98353041     0.19200
C1247       C  0.79875037  0.44348101  0.96305199     0.16400
C1248       C  0.82153457  0.45864353  0.95478236    -0.18100
C1249       C  0.77279135  0.44864891  0.95209805    -0.19900
C1250       C  0.74969401  0.43615103  0.96338452    -0.12500
C1251       C  0.75260487  0.41730461  0.98461810     0.04200
C1252       C  0.77886930  0.40954093  0.99301959    -0.24600
H1253       H  0.86932172  0.43124160  0.99712935     0.09300
H1254       H  0.82975849  0.40428875  0.01164929     0.12900
H1255       H  0.81942888  0.47377734  0.93882451     0.12800
H1256       H  0.77015395  0.46384303  0.93630530     0.12600
H1257       H  0.72960433  0.44273718  0.95709405     0.13100
H1258       H  0.78101955  0.39539353  0.00987855     0.15100
C1259       C  0.90297469  0.47383136  0.88579001    -0.08000
C1260       C  0.91158582  0.49510012  0.86865229    -0.04900
C1261       C  0.91596618  0.49040992  0.84083708    -0.23000
C1262       C  0.91223107  0.46424690  0.82976268     0.19200
C1263       C  0.90256296  0.44299308  0.84656515     0.16400
C1264       C  0.89788804  0.44793293  0.87430729    -0.18100
C1265       C  0.89962357  0.41664321  0.83579522    -0.19900
C1266       C  0.90979142  0.41058429  0.80987989    -0.12500
C1267       C  0.92248507  0.43092317  0.79419847     0.04200
C1268       C  0.92069234  0.45829401  0.80304956    -0.24600
H1269       H  0.91498768  0.51534580  0.87677534     0.09300
H1270       H  0.92331083  0.50698805  0.82821613     0.12900
H1271       H  0.89156755  0.43115758  0.88723620     0.12800
H1272       H  0.89187028  0.40017748  0.84832594     0.12600
H1273       H  0.91093133  0.38938677  0.80372146     0.13100
H1274       H  0.93037911  0.47412999  0.79102378     0.15100
C1275       C  0.93544426  0.42319802  0.24868476    -0.05000
C1276       C  0.91106872  0.43808644  0.24977988    -0.04900
C1277       C  0.89914815  0.44768331  0.22571199    -0.23000
C1278       C  0.91221314  0.44359629  0.20048049     0.19200
C1279       C  0.93645153  0.42812859  0.19924971     0.16400
C1280       C  0.94720501  0.41711034  0.22318517    -0.18100
C1281       C  0.95049227  0.42540479  0.17441754    -0.19900
C1282       C  0.94059910  0.43797893  0.15087498    -0.12500
C1283       C  0.91622344  0.45294444  0.15170543     0.04200
C1284       C  0.90210623  0.45560291  0.17664601    -0.24600
H1285       H  0.90221808  0.44364156  0.26923590     0.09300
H1286       H  0.88062738  0.45968979  0.22698227     0.12900
H1287       H  0.96648398  0.40624793  0.22239908     0.12800
H1288       H  0.96936379  0.41393239  0.17331269     0.12600
H1289       H  0.95167498  0.43558105  0.13191172     0.13100
H1290       H  0.88349811  0.46753161  0.17756642     0.15100
C1291       C  0.74263131  0.42364065  0.07789465    -0.05000
C1292       C  0.75951447  0.40297902  0.08832369    -0.04900
C1293       C  0.78573322  0.40913568  0.09756197    -0.23000
C1294       C  0.79565290  0.43594107  0.09582584     0.19200
C1295       C  0.77782120  0.45724109  0.08834164     0.16400
C1296       C  0.75083626  0.45107803  0.08107295    -0.18100
C1297       C  0.78801243  0.48387911  0.08553254    -0.19900
C1298       C  0.81586154  0.48914960  0.08889026    -0.12500
C1299       C  0.83397099  0.46798897  0.09560466     0.04200
C1300       C  0.82345244  0.44146847  0.09961537    -0.24600
H1301       H  0.75391439  0.38173267  0.08602362     0.09300
H1302       H  0.79907108  0.39257899  0.10358894     0.12900
H1303       H  0.73794245  0.46716231  0.07307343     0.12800
H1304       H  0.77461503  0.50047476  0.07975801     0.12600
H1305       H  0.82322720  0.50981094  0.08634303     0.13100
H1306       H  0.83713201  0.42480833  0.10452913     0.15100
C1307       C  0.04655456  0.70736200  0.16438525    -0.05000
C1308       C  0.03573110  0.68824201  0.18273445    -0.04900
C1309       C  0.03196247  0.69501611  0.21016673    -0.23000
C1310       C  0.03822359  0.72131373  0.21960120     0.19200
C1311       C  0.04963900  0.74057948  0.20153371     0.16400
C1312       C  0.05414356  0.73334884  0.17420100    -0.18100
C1313       C  0.05436700  0.76734336  0.21063212    -0.19900
C1314       C  0.04397060  0.77593555  0.23582849    -0.12500
C1315       C  0.02980791  0.75754513  0.25261340     0.04200
C1316       C  0.03036660  0.72955326  0.24585516    -0.24600
H1317       H  0.03044369  0.66792370  0.17590499     0.09300
H1318       H  0.02308254  0.68002940  0.22375631     0.12900
H1319       H  0.06246229  0.74835753  0.16026525     0.12800
H1320       H  0.06346326  0.78231005  0.19716227     0.12600
H1321       H  0.04385806  0.79754541  0.24047652     0.13100
H1322       H  0.01948723  0.71525505  0.25876387     0.15100
C1323       C  0.20344432  0.74816932  0.06586182    -0.05000
C1324       C  0.18705057  0.76858737  0.07769641    -0.04900
C1325       C  0.16128530  0.76235962  0.08809999    -0.23000
C1326       C  0.15099612  0.73580364  0.08592773     0.19200
C1327       C  0.16794676  0.71466555  0.07610823     0.16400
C1328       C  0.19463638  0.72075966  0.06764169    -0.18100
C1329       C  0.15722066  0.68827724  0.07297011    -0.19900
C1330       C  0.12979258  0.68307054  0.07901196    -0.12500
C1331       C  0.11281023  0.70404503  0.08870557     0.04200
C1332       C  0.12369673  0.73033035  0.09232757    -0.24600
H1333       H  0.19278091  0.78986279  0.07634761     0.09300
H1334       H  0.14856985  0.77875582  0.09579473     0.12900
H1335       H  0.20713409  0.70471827  0.05886282     0.12800
H1336       H  0.16988907  0.67180675  0.06536164     0.12600
H1337       H  0.12199231  0.66253492  0.07673721     0.13100
H1338       H  0.11071575  0.74663603  0.09982323     0.15100
C1339       C  0.91061568  0.71195468  0.15893873    -0.05000
C1340       C  0.91826999  0.69225785  0.17818753    -0.04900
C1341       C  0.92335755  0.69980988  0.20515528    -0.23000
C1342       C  0.92126619  0.72725435  0.21317154     0.19200
C1343       C  0.91341069  0.74719196  0.19401872     0.16400
C1344       C  0.90807057  0.73941829  0.16714032    -0.18100
C1345       C  0.91248800  0.77477660  0.20168671    -0.19900
C1346       C  0.92249803  0.78286626  0.22702436    -0.12500
C1347       C  0.93259648  0.76336790  0.24532280     0.04200
C1348       C  0.92928743  0.73542423  0.23927267    -0.24600
H1349       H  0.91984402  0.67096493  0.17247976     0.09300
H1350       H  0.92954855  0.68429030  0.21957987     0.12900
H1351       H  0.90254279  0.75489413  0.15237977     0.12800
H1352       H  0.90628183  0.79028523  0.18725585     0.12600
H1353       H  0.92517887  0.80443512  0.23099668     0.13100
H1354       H  0.93729085  0.72029922  0.25325979     0.15100
C1355       C  0.84639041  0.72226388  0.08348570    -0.05000
C1356       C  0.84855354  0.74863555  0.07267383    -0.04900
C1357       C  0.82526300  0.76437715  0.06830737    -0.23000
C1358       C  0.79942474  0.75382751  0.07446121     0.19200
C1359       C  0.79699810  0.72724505  0.08535789     0.16400
C1360       C  0.82060691  0.71174328  0.09019444    -0.18100
C1361       C  0.77096822  0.71637063  0.09024384    -0.19900
C1362       C  0.74773307  0.73043537  0.08145928    -0.12500
C1363       C  0.75024140  0.75601713  0.06887642     0.04200
C1364       C  0.77593698  0.76863045  0.06789640    -0.24600
H1365       H  0.86840316  0.75734238  0.06844976     0.09300
H1366       H  0.82743472  0.78468445  0.05985332     0.12900
H1367       H  0.81904743  0.69169024  0.09938991     0.12800
H1368       H  0.76870605  0.69606931  0.09867535     0.12600
H1369       H  0.72822851  0.72012899  0.08175900     0.13100
H1370       H  0.77799614  0.78808858  0.05754459     0.15100
C1371       C  0.91415069  0.70349370  0.88215825    -0.05000
C1372       C  0.92337956  0.68220775  0.86525923    -0.04900
C1373       C  0.92767478  0.68657624  0.83734191    -0.23000
C1374       C  0.92315316  0.71242707  0.82577549     0.19200
C1375       C  0.91358861  0.73386302  0.84240317     0.16400
C1376       C  0.90912956  0.72929302  0.87029760    -0.18100
C1377       C  0.91000401  0.75993974  0.83115912    -0.19900
C1378       C  0.91912753  0.76556390  0.80474073    -0.12500
C1379       C  0.93128619  0.74502704  0.78876832     0.04200
C1380       C  0.93025527  0.71782936  0.79850517    -0.24600
H1381       H  0.92700207  0.66206505  0.87354547     0.09300
H1382       H  0.93521192  0.66989282  0.82493310     0.12900
H1383       H  0.90261410  0.74621838  0.88295162     0.12800
H1384       H  0.90232795  0.77656440  0.84356336     0.12600
H1385       H  0.91960740  0.78665238  0.79820561     0.13100
H1386       H  0.93909630  0.70161070  0.78629818     0.15100
C1387       C  0.85541353  0.72316090  0.96220763    -0.05000
C1388       C  0.85746195  0.74149079  0.98401648    -0.04900
C1389       C  0.83495292  0.75719751  0.99190270    -0.23000
C1390       C  0.80985943  0.75428518  0.97854105     0.19200
C1391       C  0.80729100  0.73528987  0.95713434     0.16400
C1392       C  0.83019619  0.72013566  0.94885435    -0.18100
C1393       C  0.78165800  0.73116626  0.94506372    -0.19900
C1394       C  0.75837644  0.74404750  0.95569603    -0.12500
C1395       C  0.76069657  0.76225408  0.97755726     0.04200
C1396       C  0.78685517  0.76871052  0.98748514    -0.24600
H1397       H  0.87671343  0.74427852  0.99435483     0.09300
H1398       H  0.83709696  0.77143554  0.00862032     0.12900
H1399       H  0.82843613  0.70579774  0.93214503     0.12800
H1400       H  0.77933511  0.71654900  0.92869450     0.12600
H1401       H  0.73845352  0.73820290  0.94832719     0.13100
H1402       H  0.78865607  0.78220671  0.00489855     0.15100
C1403       C  0.10653602  0.71807715  0.96052507    -0.05000
C1404       C  0.10463264  0.74308361  0.97423234    -0.04900
C1405       C  0.12774821  0.75898616  0.97844798    -0.23000
C1406       C  0.15331792  0.74985060  0.96949988     0.19200
C1407       C  0.15560800  0.72467176  0.95560216     0.16400
C1408       C  0.13198408  0.70916384  0.95059759    -0.18100
C1409       C  0.18160321  0.71499058  0.94825314    -0.19900
C1410       C  0.20502429  0.72856470  0.95737509    -0.12500
C1411       C  0.20269741  0.75279512  0.97250858     0.04200
C1412       C  0.17680889  0.76444076  0.97635791    -0.24600
H1413       H  0.08499429  0.75064233  0.98103777     0.09300
H1414       H  0.12570024  0.77817975  0.98922853     0.12900
H1415       H  0.13332696  0.69021558  0.93927413     0.12800
H1416       H  0.18383012  0.69576018  0.93758182     0.12600
H1417       H  0.22472582  0.71887508  0.95487506     0.13100
H1418       H  0.17490732  0.78269262  0.98874741     0.15100
C1419       C  0.03196459  0.71642368  0.89512350    -0.05000
C1420       C  0.00843339  0.73266253  0.89591401    -0.04900
C1421       C  0.00058566  0.74758584  0.87300505    -0.23000
C1422       C  0.01593100  0.74609852  0.84886523     0.19200
C1423       C  0.03907486  0.72903044  0.84747730     0.16400
C1424       C  0.04714906  0.71457960  0.87076348    -0.18100
C1425       C  0.05325424  0.72626735  0.82266179    -0.19900
C1426       C  0.04331005  0.73873725  0.79897791    -0.12500
C1427       C  0.02003534  0.75531478  0.80024831     0.04200
C1428       C  0.00753774  0.76020171  0.82564090    -0.24600
H1429       H  0.99681174  0.73469480  0.91459683     0.09300
H1430       H  0.98249032  0.76025445  0.87413795     0.12900
H1431       H  0.06538516  0.70206678  0.87012151     0.12800
H1432       H  0.07095241  0.71308999  0.82123198     0.12600
H1433       H  0.05261562  0.73401856  0.77951222     0.13100
H1434       H  0.98898032  0.77226988  0.82647159     0.15100
loop_ 
_geom_bond_atom_site_label_1 
_geom_bond_atom_site_label_2 
_geom_bond_distance 
_geom_bond_site_symmetry_2 
_ccdc_geom_bond_type 
C1            C2   1.391       .  A
C1            C6   1.409       .  A
C1         C1403   1.473       .  S
C2            C3   1.395       .  A
C2            H7   1.086       .  S
C3            C4   1.411       .  A
C3         C1419   1.479       .  S
C4            C5   1.413       .  A
C4            H8   1.084       .  S
C5            C6   1.412       .  A
C5           C75   1.486       .  S
C6            H9   1.084       .  S
C10          C11   1.398       .  A
C10          C15   1.409       .  A
C10        C1387   1.483       .  S
C11          C12   1.401       .  A
C11          H16   1.083       .  S
C12          C13   1.417       .  A
C12        C1371   1.499       .  S
C13          C14   1.416       .  A
C13          H17   1.083       .  S
C14          C15   1.410       .  A
C14          C81   1.491       .  S
C15          H18   1.084       .  S
C19          C20   1.396       .  A
C19          C24   1.411       .  A
C19        C1339   1.484       .  S
C20          C21   1.391       .  A
C20          H25   1.085       .  S
C21          C22   1.406       .  A
C21        C1355   1.470       .  S
C22          C23   1.410       .  A
C22          H26   1.084       .  S
C23          C24   1.411       .  A
C23          C98   1.481       .  S
C24          H27   1.084       .  S
C28          C29   1.415       .  A
C28          C33   1.397       .  A
C28        C1307   1.490       .  S
C29          C30   1.413       .  A
C29          H34   1.083       .  S
C30          C31   1.410       .  A
C30         C104   1.485       .  S
C31          C32   1.409       .  A
C31          H35   1.084       .  S
C32          C33   1.397       .  A
C32        C1331   1.483       .  S
C33          H36   1.084       .  S
C37          C38   1.409       .  A
C37          C42   1.398       .  A
C37        C1283   1.484       .  S
C38          C39   1.410       .  A
C38          H43   1.084       .  S
C39          C40   1.415       .  A
C39         C101   1.490       .  S
C40          C41   1.415       .  A
C40          H44   1.083       .  S
C41          C42   1.399       .  A
C41        C1299   1.494       .  S
C42          H45   1.084       .  S
C46          C47   1.395       .  A
C46          C51   1.411       .  A
C46        C1243   1.479       .  S
C47          C48   1.396       .  A
C47          H52   1.084       .  S
C48          C49   1.413       .  A
C48        C1259   1.492       .  S
C49          C50   1.414       .  A
C49          H53   1.083       .  S
C50          C51   1.412       .  A
C50          C78   1.488       .  S
C51          H54   1.084       .  S
C55          C56   1.414       .  A
C55          C60   1.398       .  A
C55        C1211   1.493       .  S
C56          C57   1.414       .  A
C56          H61   1.083       .  S
C57          C58   1.412       .  A
C57          C84   1.487       .  S
C58          C59   1.411       .  A
C58          H62   1.084       .  S
C59          C60   1.393       .  A
C59        C1235   1.481       .  S
C60          H63   1.084       .  S
C64          C65   1.400       .  A
C64          C69   1.415       .  A
C64        C1179   1.498       .  S
C65          C66   1.396       .  A
C65          H70   1.083       .  S
C66          C67   1.411       .  A
C66        C1203   1.484       .  S
C67          C68   1.411       .  A
C67          H71   1.084       .  S
C68          C69   1.416       .  A
C68          C95   1.492       .  S
C69          H72   1.083       .  S
O73         Zr85   2.456       .  S
O73          C75   1.290       .  A
O74        Zr111   2.458   1_456  S
O74          C75   1.293       .  A
O76         Zr88   2.440       .  S
O76          C78   1.287       .  A
O77        Zr112   2.474   1_556  S
O77          C78   1.296       .  A
O79         Zr88   2.451       .  S
O79          C81   1.289       .  A
O80        Zr111   2.469   1_556  S
O80          C81   1.295       .  A
O82         Zr85   2.441       .  S
O82          C84   1.288       .  A
O83        Zr112   2.473   1_456  S
O83          C84   1.296       .  A
Zr85         O86   2.433       .  S
Zr85         O87   2.435   1_556  S
Zr85         O91   2.371   1_455  S
Zr85         O92   2.378   1_455  S
Zr85        O115   2.375   1_556  S
Zr85        O117   2.365   1_556  S
O86         H129   0.990       .  S
O87         H128   0.990   1_554  S
O87         H132   0.990       .  S
Zr88         O89   2.437       .  S
Zr88         O90   2.434       .  S
Zr88         O92   2.374       .  S
Zr88         O91   2.368       .  S
Zr88        O116   2.372   1_556  S
Zr88        O118   2.375   1_556  S
O89         H130   0.990       .  S
O89         H133   0.990       .  S
O90         H123   0.990       .  S
O91        Zr111   2.391   1_556  S
O92        Zr112   2.402   1_556  S
O92         H119   0.964       .  S
O93        Zr105   2.442       .  S
O93          C95   1.288       .  A
O94        Zr112   2.479   1_455  S
O94          C95   1.297       .  A
O96        Zr108   2.449       .  S
O96          C98   1.289       .  A
O97        Zr111   2.455       .  S
O97          C98   1.293       .  A
O99        Zr108   2.455       .  S
O99         C101   1.290       .  A
O100       Zr112   2.467       .  S
O100        C101   1.295       .  A
O102       Zr105   2.437       .  S
O102        C104   1.286       .  A
O103       Zr111   2.478   1_455  S
O103        C104   1.297       .  A
Zr105       O106   2.436       .  S
Zr105       O107   2.434       .  S
Zr105       O113   2.371   1_455  S
Zr105       O114   2.371   1_455  S
Zr105       O117   2.378       .  S
Zr105       O115   2.376       .  S
O106        H126   0.990   1_455  S
O106        H131   0.990       .  S
O107        H127   0.990       .  S
Zr108       O109   2.434       .  S
Zr108       O110   2.435       .  S
Zr108       O114   2.378       .  S
Zr108       O113   2.373       .  S
Zr108       O118   2.370       .  S
Zr108       O116   2.376       .  S
O109        H125   0.990       .  S
O110        H124   0.990       .  S
O110        H134   0.990       .  S
Zr111       O114   2.394       .  S
Zr111       O116   2.398       .  S
Zr111       O117   2.396   1_655  S
Zr112       O113   2.397       .  S
Zr112       O115   2.397   1_655  S
Zr112       O118   2.394       .  S
O113        H121   0.964       .  S
O116        H120   0.965       .  S
O117        H122   0.964       .  S
C135        C136   1.413       .  A
C135        C140   1.399   1_545  A
C135       C1147   1.490       .  S
C136        C137   1.412       .  A
C136        H141   1.083       .  S
C137        C138   1.408   1_545  A
C137        C209   1.482       .  S
C138        C139   1.406       .  A
C138        H142   1.084       .  S
C139        C140   1.395       .  A
C139       C1171   1.472       .  S
C140        H143   1.084       .  S
C144        C145   1.393   1_545  A
C144        C149   1.412       .  A
C144       C1131   1.478       .  S
C145        C146   1.392       .  A
C145        H150   1.086       .  S
C146        C147   1.408   1_565  A
C146       C1123   1.472       .  S
C147        C148   1.412       .  A
C147        H151   1.084   1_545  S
C148        C149   1.417       .  A
C148        C215   1.486       .  S
C149        H152   1.083       .  S
C153        C154   1.409       .  A
C153        C158   1.395       .  A
C153       C1083   1.472       .  S
C154        C155   1.409       .  A
C154        H159   1.084       .  S
C155        C156   1.406       .  A
C155        C232   1.475       .  S
C156        C157   1.405       .  A
C156        H160   1.084       .  S
C157        C158   1.395       .  A
C157       C1099   1.471       .  S
C158        H161   1.085       .  S
C162        C163   1.393       .  A
C162        C167   1.406       .  A
C162       C1059   1.473       .  S
C163        C164   1.397       .  A
C163        H168   1.085       .  S
C164        C165   1.411       .  A
C164       C1067   1.486       .  S
C165        C166   1.413       .  A
C165        H169   1.084       .  S
C166        C167   1.410       .  A
C166        C238   1.481       .  S
C167        H170   1.084       .  S
C171        C172   1.392       .  A
C171        C176   1.410       .  A
C171       C1027   1.476       .  S
C172        C173   1.397       .  A
C172        H177   1.085       .  S
C173        C174   1.413       .  A
C173       C1043   1.488       .  S
C174        C175   1.415       .  A
C174        H178   1.084       .  S
C175        C176   1.414       .  A
C175        C235   1.488       .  S
C176        H179   1.084       .  S
C180        C181   1.395   1_545  A
C180        C185   1.411       .  A
C180        C987   1.485       .  S
C181        C182   1.394       .  A
C181        H186   1.084       .  S
C182        C183   1.407       .  A
C182       C1011   1.478       .  S
C183        C184   1.408   1_565  A
C183        H187   1.084       .  S
C184        C185   1.413       .  A
C184        C212   1.478       .  S
C185        H188   1.084       .  S
C189        C190   1.411       .  A
C189        C194   1.403   1_545  A
C189        C955   1.491       .  S
C190        C191   1.411       .  A
C190        H195   1.084       .  S
C191        C192   1.412   1_545  A
C191        C218   1.488       .  S
C192        C193   1.415       .  A
C192        H196   1.083       .  S
C193        C194   1.401       .  A
C193        C971   1.494       .  S
C194        H197   1.084       .  S
C198        C199   1.392       .  A
C198        C203   1.409       .  A
C198        C939   1.472       .  S
C199        C200   1.393       .  A
C199        H204   1.086       .  S
C200        C201   1.408       .  A
C200        C931   1.471       .  S
C201        C202   1.409       .  A
C201        H205   1.084       .  S
C202        C203   1.410       .  A
C202        C229   1.480       .  S
C203        H206   1.084       .  S
O207       Zr219   2.445       .  S
O207        C209   1.288       .  A
O208       Zr245   2.462       .  S
O208        C209   1.294       .  A
O210       Zr222   2.430       .  S
O210        C212   1.285       .  A
O211       Zr246   2.465   1_556  S
O211        C212   1.294       .  A
O213       Zr222   2.446       .  S
O213        C215   1.288       .  A
O214       Zr245   2.470   1_556  S
O214        C215   1.295       .  A
O216       Zr219   2.439       .  S
O216        C218   1.287       .  A
O217       Zr246   2.477       .  S
O217        C218   1.297       .  A
Zr219       O220   2.434   1_545  S
Zr219       O221   2.437       .  S
Zr219       O225   2.377       .  S
Zr219       O226   2.377       .  S
Zr219       O249   2.370       .  S
Zr219       O251   2.372       .  S
O220        H263   0.990       .  S
O221        H262   0.990       .  S
O221        H266   0.990       .  S
Zr222       O223   2.437   1_545  S
Zr222       O224   2.434       .  S
Zr222       O226   2.379   1_556  S
Zr222       O225   2.373   1_556  S
Zr222       O250   2.367       .  S
Zr222       O252   2.376       .  S
O223        H264   0.990       .  S
O223        H267   0.990       .  S
O224        H257   0.990       .  S
O225       Zr245   2.391       .  S
O226       Zr246   2.401       .  S
O226        H253   0.967       .  S
O227       Zr239   2.442       .  S
O227        C229   1.287       .  A
O228       Zr246   2.460       .  S
O228        C229   1.293       .  A
O230       Zr242   2.439       .  S
O230        C232   1.287       .  A
O231       Zr245   2.454   1_556  S
O231        C232   1.292       .  A
O233       Zr242   2.442       .  S
O233        C235   1.287       .  A
O234       Zr246   2.477   1_556  S
O234        C235   1.297       .  A
O236       Zr239   2.441       .  S
O236        C238   1.287       .  A
O237       Zr245   2.462       .  S
O237        C238   1.294       .  A
Zr239       O240   2.436       .  S
Zr239       O241   2.434       .  S
Zr239       O247   2.373       .  S
Zr239       O248   2.373       .  S
Zr239       O251   2.371       .  S
Zr239       O249   2.368       .  S
O240        H260   0.990       .  S
O240        H265   0.990       .  S
O241        H261   0.990       .  S
Zr242       O243   2.433       .  S
Zr242       O244   2.437       .  S
Zr242       O248   2.372   1_556  S
Zr242       O247   2.370   1_556  S
Zr242       O252   2.373       .  S
Zr242       O250   2.373       .  S
O243        H259   0.990   1_556  S
O244        H258   0.990       .  S
O244        H268   0.990       .  S
Zr245       O248   2.393       .  S
Zr245       O250   2.393   1_554  S
Zr245       O251   2.397       .  S
Zr246       O247   2.398       .  S
Zr246       O249   2.391       .  S
Zr246       O252   2.394   1_554  S
O247        H255   0.965       .  S
O250        H254   0.967       .  S
O251        H256   0.965       .  S
C269        C270   1.416       .  A
C269        C274   1.396   1_545  A
C269        C899   1.492       .  S
C270        C271   1.417       .  A
C270        H275   1.083       .  S
C271        C272   1.409       .  A
C271        C349   1.487       .  S
C272        C273   1.407   1_545  A
C272        H276   1.084       .  S
C273        C274   1.393       .  A
C273        C915   1.473       .  S
C274        H277   1.085       .  S
C278        C279   1.416       .  A
C278        C283   1.400   1_545  A
C278        C883   1.496       .  S
C279        C280   1.415       .  A
C279        H284   1.083       .  S
C280        C281   1.415       .  A
C280        C343   1.493       .  S
C281        C282   1.412   1_545  A
C281        H285   1.083   1_545  S
C282        C283   1.394       .  A
C282        C859   1.481       .  S
C283        H286   1.084       .  S
C287        C288   1.414       .  A
C287        C292   1.398       .  A
C287        C827   1.494       .  S
C288        C289   1.416       .  A
C288        H293   1.083       .  S
C289        C290   1.407       .  A
C289        C372   1.483       .  S
C290        C291   1.406       .  A
C290        H294   1.084       .  S
C291        C292   1.394       .  A
C291        C851   1.476       .  S
C292        H295   1.084       .  S
C296        C297   1.395       .  A
C296        C301   1.406       .  A
C296        C795   1.477       .  S
C297        C298   1.395       .  A
C297        H302   1.085       .  S
C298        C299   1.413       .  A
C298        C811   1.486       .  S
C299        C300   1.414       .  A
C299        H303   1.084       .  S
C300        C301   1.407       .  A
C300        C366   1.480       .  S
C301        H304   1.084       .  S
C305        C306   1.409       .  A
C305        C310   1.394       .  A
C305        C763   1.479       .  S
C306        C307   1.411       .  A
C306        H311   1.084       .  S
C307        C308   1.411       .  A
C307        C363   1.481       .  S
C308        C309   1.409       .  A
C308        H312   1.084       .  S
C309        C310   1.391       .  A
C309        C779   1.474       .  S
C310        H313   1.085       .  S
C314        C315   1.416       .  A
C314        C319   1.397   1_545  A
C314        C731   1.497       .  S
C315        C316   1.418       .  A
C315        H320   1.083       .  S
C316        C317   1.411       .  A
C316        C352   1.490       .  S
C317        C318   1.408   1_545  A
C317        H321   1.084       .  S
C318        C319   1.393       .  A
C318        C747   1.479       .  S
C319        H322   1.084       .  S
C323        C324   1.393   1_545  A
C323        C328   1.410       .  A
C323        C707   1.478       .  S
C324        C325   1.398       .  A
C324        H329   1.084       .  S
C325        C326   1.415       .  A
C325        C723   1.495       .  S
C326        C327   1.416   1_565  A
C326        H330   1.083       .  S
C327        C328   1.413       .  A
C327        C346   1.490       .  S
C328        H331   1.084       .  S
C332        C333   1.417       .  A
C332        C337   1.399       .  A
C332        C675   1.499       .  S
C333        C334   1.417       .  A
C333        H338   1.083       .  S
C334        C335   1.406       .  A
C334        C369   1.485       .  S
C335        C336   1.407       .  A
C335        H339   1.084       .  S
C336        C337   1.396       .  A
C336        C683   1.478       .  S
C337        H340   1.083       .  S
O341       Zr353   2.444       .  S
O341        C343   1.288       .  A
O342       Zr379   2.484       .  S
O342        C343   1.298       .  A
O344       Zr356   2.442       .  S
O344        C346   1.288       .  A
O345       Zr380   2.476   1_455  S
O345        C346   1.296       .  A
O347       Zr356   2.447       .  S
O347        C349   1.288       .  A
O348       Zr379   2.471   1_455  S
O348        C349   1.296       .  A
O350       Zr353   2.448       .  S
O350        C352   1.289       .  A
O351       Zr380   2.470       .  S
O351        C352   1.295       .  A
Zr353       O354   2.436       .  S
Zr353       O355   2.437       .  S
Zr353       O359   2.378       .  S
Zr353       O360   2.376       .  S
Zr353       O383   2.369       .  S
Zr353       O385   2.376       .  S
O354        H397   0.990   1_545  S
O355        H396   0.990       .  S
O355        H400   0.990       .  S
Zr356       O357   2.435       .  S
Zr356       O358   2.434       .  S
Zr356       O360   2.374   1_455  S
Zr356       O359   2.375   1_455  S
Zr356       O384   2.370       .  S
Zr356       O386   2.378       .  S
O357        H398   0.990   1_545  S
O357        H401   0.990   1_445  S
O358        H391   0.990       .  S
O359       Zr379   2.392       .  S
O360       Zr380   2.393       .  S
O360        H387   0.965       .  S
O361       Zr373   2.452       .  S
O361        C363   1.290       .  A
O362       Zr380   2.454       .  S
O362        C363   1.292       .  A
O364       Zr376   2.433       .  S
O364        C366   1.286       .  A
O365       Zr379   2.471   1_455  S
O365        C366   1.296       .  A
O367       Zr376   2.441       .  S
O367        C369   1.287       .  A
O368       Zr380   2.473   1_455  S
O368        C369   1.296       .  A
O370       Zr373   2.433       .  S
O370        C372   1.286       .  A
O371       Zr379   2.472       .  S
O371        C372   1.296       .  A
Zr373       O374   2.437       .  S
Zr373       O375   2.434       .  S
Zr373       O381   2.365       .  S
Zr373       O382   2.371       .  S
Zr373       O385   2.380       .  S
Zr373       O383   2.370       .  S
O374        H394   0.990       .  S
O374        H399   0.990       .  S
O375        H395   0.990       .  S
Zr376       O377   2.436       .  S
Zr376       O378   2.434       .  S
Zr376       O382   2.370   1_455  S
Zr376       O381   2.368   1_455  S
Zr376       O386   2.377       .  S
Zr376       O384   2.372       .  S
O377        H393   0.990   1_455  S
O378        H392   0.990       .  S
O378        H402   0.990       .  S
Zr379       O382   2.397       .  S
Zr379       O384   2.396   1_655  S
Zr379       O385   2.400       .  S
Zr380       O381   2.398       .  S
Zr380       O383   2.393       .  S
Zr380       O386   2.392   1_655  S
O381        H389   0.965       .  S
O384        H388   0.966       .  S
O385        H390   0.968       .  S
C403        C404   1.399   1_455  A
C403        C408   1.420       .  A
C403       C1187   1.493       .  S
C404        C405   1.390       .  A
C404        H423   1.085       .  S
C405        C406   1.408       .  A
C405       C1275   1.482       .  S
C406        C407   1.423       .  A
C406        C413   1.403       .  A
C407        C408   1.423   1_655  A
C407        C412   1.419       .  A
C408        C409   1.407       .  A
C409        C410   1.399       .  A
C409        H419   1.083       .  S
C410        C411   1.404       .  A
C410        H420   1.083       .  S
C411        C412   1.428   1_455  A
C411        C418   1.418       .  A
C412        C415   1.424       .  A
C413        C414   1.394       .  A
C413        H421   1.083       .  S
C414        C415   1.405       .  A
C414        H422   1.083       .  S
C415        C416   1.409       .  A
C416        C417   1.392       .  A
C416        C771   1.479       .  S
C417        C418   1.392   1_655  A
C417        H424   1.086       .  S
C418        C667   1.490       .  S
C425        C426   1.398       .  A
C425        C430   1.423       .  A
C425        C963   1.496       .  S
C426        C427   1.393       .  A
C426        H445   1.086       .  S
C427        C428   1.405       .  A
C427        C923   1.475       .  S
C428        C429   1.420       .  A
C428        C435   1.404       .  A
C429        C430   1.424       .  A
C429        C434   1.415       .  A
C430        C431   1.408       .  A
C431        C432   1.403       .  A
C431        H441   1.083       .  S
C432        C433   1.405       .  A
C432        H442   1.083       .  S
C433        C434   1.424       .  A
C433        C440   1.416       .  A
C434        C437   1.423       .  A
C435        C436   1.396       .  A
C435        H443   1.083       .  S
C436        C437   1.404       .  A
C436        H444   1.083       .  S
C437        C438   1.408       .  A
C438        C439   1.391       .  A
C438        C691   1.477       .  S
C439        C440   1.392       .  A
C439        H446   1.088       .  S
C440        C699   1.482       .  S
C447        C448   1.393   1_556  A
C447        C452   1.414       .  A
C447       C1219   1.482       .  S
C448        C449   1.390       .  A
C448        H467   1.087       .  S
C449        C450   1.411       .  A
C449       C1195   1.482       .  S
C450        C451   1.425       .  A
C450        C457   1.405       .  A
C451        C452   1.424   1_554  A
C451        C456   1.415       .  A
C452        C453   1.407       .  A
C453        C454   1.400       .  A
C453        H463   1.083       .  S
C454        C455   1.404   1_556  A
C454        H464   1.083       .  S
C455        C456   1.421       .  A
C455        C462   1.412       .  A
C456        C459   1.419       .  A
C457        C458   1.397       .  A
C457        H465   1.082       .  S
C458        C459   1.404       .  A
C458        H466   1.083       .  S
C459        C460   1.410       .  A
C460        C461   1.396       .  A
C460        C947   1.475       .  S
C461        C462   1.394       .  A
C461        H468   1.088       .  S
C462       C1019   1.481   1_554  S
C469        C470   1.393       .  A
C469        C474   1.415       .  A
C469       C1155   1.487       .  S
C470        C471   1.393       .  A
C470        H489   1.085       .  S
C471        C472   1.414       .  A
C471       C1075   1.488       .  S
C472        C473   1.426       .  A
C472        C479   1.405       .  A
C473        C474   1.424       .  A
C473        C478   1.419       .  A
C474        C475   1.406       .  A
C475        C476   1.399       .  A
C475        H485   1.083       .  S
C476        C477   1.405       .  A
C476        H486   1.083       .  S
C477        C478   1.426       .  A
C477        C484   1.420       .  A
C478        C481   1.422       .  A
C479        C480   1.395       .  A
C479        H487   1.082       .  S
C480        C481   1.403       .  A
C480        H488   1.083       .  S
C481        C482   1.406       .  A
C482        C483   1.389       .  A
C482        C787   1.478       .  S
C483        C484   1.396       .  A
C483        H490   1.086       .  S
C484        C739   1.490       .  S
C491        C492   1.392       .  A
C491        C496   1.413       .  A
C491       C1347   1.485       .  S
C492        C493   1.393   1_655  A
C492        H511   1.086       .  S
C493        C494   1.415       .  A
C493       C1315   1.490       .  S
C494        C495   1.427   1_455  A
C494        C501   1.405       .  A
C495        C496   1.426       .  A
C495        C500   1.419       .  A
C496        C497   1.406       .  A
C497        C498   1.396       .  A
C497        H507   1.082       .  S
C498        C499   1.403       .  A
C498        H508   1.083       .  S
C499        C500   1.424       .  A
C499        C506   1.409       .  A
C500        C503   1.426   1_655  A
C501        C502   1.398       .  A
C501        H509   1.083       .  S
C502        C503   1.405       .  A
C502        H510   1.083       .  S
C503        C504   1.418       .  A
C504        C505   1.394   1_455  A
C504        C715   1.489       .  S
C505        C506   1.390       .  A
C505        H512   1.087       .  S
C506        C755   1.480       .  S
C513        C514   1.393       .  A
C513        C518   1.417       .  A
C513       C1035   1.489       .  S
C514        C515   1.392       .  A
C514        H533   1.085       .  S
C515        C516   1.415       .  A
C515        C995   1.488       .  S
C516        C517   1.425       .  A
C516        C523   1.405       .  A
C517        C518   1.426       .  A
C517        C522   1.421       .  A
C518        C519   1.405       .  A
C519        C520   1.398       .  A
C519        H529   1.083       .  S
C520        C521   1.405       .  A
C520        H530   1.083       .  S
C521        C522   1.426       .  A
C521        C528   1.416       .  A
C522        C525   1.427       .  A
C523        C524   1.396       .  A
C523        H531   1.083       .  S
C524        C525   1.404       .  A
C524        H532   1.083       .  S
C525        C526   1.415       .  A
C526        C527   1.391       .  A
C526        C891   1.489       .  S
C527        C528   1.393       .  A
C527        H534   1.086       .  S
C528        C819   1.489       .  S
C535        C536   1.397       .  A
C535        C540   1.418       .  A
C535       C1267   1.490       .  S
C536        C537   1.391       .  A
C536        H555   1.086       .  S
C537        C538   1.411       .  A
C537       C1227   1.482   1_655  S
C538        C539   1.424       .  A
C538        C545   1.403   1_655  A
C539        C540   1.424       .  A
C539        C544   1.420       .  A
C540        C541   1.406       .  A
C541        C542   1.397       .  A
C541        H551   1.083       .  S
C542        C543   1.404       .  A
C542        H552   1.083       .  S
C543        C544   1.427       .  A
C543        C550   1.415       .  A
C544        C547   1.425       .  A
C545        C546   1.396       .  A
C545        H553   1.083       .  S
C546        C547   1.406   1_455  A
C546        H554   1.082       .  S
C547        C548   1.414       .  A
C548        C549   1.394       .  A
C548        C803   1.486   1_655  S
C549        C550   1.390       .  A
C549        H556   1.086       .  S
C550        C835   1.489       .  S
C557        C558   1.393   1_556  A
C557        C562   1.410       .  A
C557       C1411   1.480       .  S
C558        C559   1.400       .  A
C558        H577   1.085       .  S
C559        C560   1.421       .  A
C559       C1323   1.497       .  S
C560        C561   1.423       .  A
C560        C567   1.408       .  A
C561        C562   1.423   1_554  A
C561        C566   1.420       .  A
C562        C563   1.404       .  A
C563        C564   1.396       .  A
C563        H573   1.083       .  S
C564        C565   1.404       .  A
C564        H574   1.083       .  S
C565        C566   1.426   1_556  A
C565        C572   1.410       .  A
C566        C569   1.429       .  A
C567        C568   1.400       .  A
C567        H575   1.083       .  S
C568        C569   1.403       .  A
C568        H576   1.083       .  S
C569        C570   1.418       .  A
C570        C571   1.388       .  A
C570        C979   1.488       .  S
C571        C572   1.388   1_554  A
C571        H578   1.087       .  S
C572       C1003   1.478       .  S
C579        C580   1.391       .  A
C579        C584   1.406       .  A
C579       C1251   1.477   1_554  S
C580        C581   1.397       .  A
C580        H599   1.086       .  S
C581        C582   1.419       .  A
C581       C1291   1.491       .  S
C582        C583   1.425       .  A
C582        C589   1.407       .  A
C583        C584   1.421       .  A
C583        C588   1.415       .  A
C584        C585   1.405   1_554  A
C585        C586   1.396       .  A
C585        H595   1.083       .  S
C586        C587   1.404   1_556  A
C586        H596   1.083       .  S
C587        C588   1.422       .  A
C587        C594   1.409       .  A
C588        C591   1.421       .  A
C589        C590   1.401       .  A
C589        H597   1.083       .  S
C590        C591   1.405       .  A
C590        H598   1.083       .  S
C591        C592   1.413       .  A
C592        C593   1.393       .  A
C592       C1051   1.478       .  S
C593        C594   1.394       .  A
C593        H600   1.088       .  S
C594       C1091   1.476   1_554  S
C601        C602   1.400       .  A
C601        C606   1.424       .  A
C601       C1379   1.500       .  S
C602        C603   1.393   1_655  A
C602        H621   1.085       .  S
C603        C604   1.409       .  A
C603       C1427   1.479       .  S
C604        C605   1.421   1_455  A
C604        C611   1.405       .  A
C605        C606   1.424       .  A
C605        C610   1.416       .  A
C606        C607   1.408       .  A
C607        C608   1.404       .  A
C607        H617   1.083       .  S
C608        C609   1.405       .  A
C608        H618   1.083       .  S
C609        C610   1.424       .  A
C609        C616   1.417       .  A
C610        C613   1.423   1_655  A
C611        C612   1.399       .  A
C611        H619   1.083       .  S
C612        C613   1.405       .  A
C612        H620   1.083       .  S
C613        C614   1.411       .  A
C614        C615   1.391   1_455  A
C614        C907   1.475       .  S
C615        C616   1.390       .  A
C615        H622   1.088       .  S
C616        C867   1.483       .  S
C623        C624   1.394       .  A
C623        C628   1.410       .  A
C623       C1107   1.476       .  S
C624        C625   1.395       .  A
C624        H643   1.088       .  S
C625        C626   1.415       .  A
C625       C1139   1.481       .  S
C626        C627   1.421       .  A
C626        C633   1.404       .  A
C627        C628   1.420       .  A
C627        C632   1.416       .  A
C628        C629   1.404       .  A
C629        C630   1.398       .  A
C629        H639   1.083       .  S
C630        C631   1.405       .  A
C630        H640   1.083       .  S
C631        C632   1.424       .  A
C631        C638   1.409       .  A
C632        C635   1.426       .  A
C633        C634   1.401       .  A
C633        H641   1.083       .  S
C634        C635   1.407       .  A
C634        H642   1.082       .  S
C635        C636   1.418       .  A
C636        C637   1.394       .  A
C636        C875   1.488       .  S
C637        C638   1.390       .  A
C637        H644   1.087       .  S
C638        C843   1.479       .  S
C645        C646   1.391       .  A
C645        C650   1.409       .  A
C645       C1363   1.474       .  S
C646        C647   1.392   1_554  A
C646        H665   1.088       .  S
C647        C648   1.414       .  A
C647       C1395   1.482       .  S
C648        C649   1.423   1_556  A
C648        C655   1.405       .  A
C649        C650   1.422       .  A
C649        C654   1.413       .  A
C650        C651   1.404       .  A
C651        C652   1.398       .  A
C651        H661   1.083       .  S
C652        C653   1.405       .  A
C652        H662   1.083       .  S
C653        C654   1.422       .  A
C653        C660   1.409       .  A
C654        C657   1.421   1_554  A
C655        C656   1.402       .  A
C655        H663   1.083       .  S
C656        C657   1.407       .  A
C656        H664   1.083       .  S
C657        C658   1.414       .  A
C658        C659   1.395   1_556  A
C658       C1115   1.476       .  S
C659        C660   1.392       .  A
C659        H666   1.088       .  S
C660       C1163   1.477       .  S
C667        C668   1.403       .  A
C667        C672   1.415       .  A
C668        C669   1.399       .  A
C668        H677   1.083       .  S
C669        C670   1.405       .  A
C669        H678   1.084       .  S
C670        C676   1.403       .  A
C670        C671   1.409       .  A
C671        C673   1.407       .  A
C671        C672   1.408       .  A
C672        H679   1.085       .  S
C673        C674   1.404       .  A
C673        H680   1.083       .  S
C674        C675   1.406       .  A
C674        H681   1.082       .  S
C675        C676   1.415       .  A
C676        H682   1.083       .  S
C683        C684   1.401       .  A
C683        C688   1.410       .  A
C684        C685   1.395       .  A
C684        H693   1.083       .  S
C685        C686   1.403       .  A
C685        H694   1.083       .  S
C686        C692   1.396       .  A
C686        C687   1.411       .  A
C687        C689   1.407       .  A
C687        C688   1.402       .  A
C688        H695   1.084       .  S
C689        C690   1.402       .  A
C689        H696   1.083       .  S
C690        C691   1.401       .  A
C690        H697   1.083       .  S
C691        C692   1.407       .  A
C692        H698   1.085       .  S
C699        C700   1.404       .  A
C699        C704   1.410       .  A
C700        C701   1.404       .  A
C700        H709   1.083       .  S
C701        C702   1.406       .  A
C701        H710   1.083       .  S
C702        C708   1.409       .  A
C702        C703   1.412       .  A
C703        C705   1.404       .  A
C703        C704   1.404       .  A
C704        H711   1.085       .  S
C705        C706   1.398       .  A
C705        H712   1.083       .  S
C706        C707   1.402       .  A
C706        H713   1.083       .  S
C707        C708   1.409       .  A
C708        H714   1.084       .  S
C715        C716   1.404       .  A
C715        C720   1.413       .  A
C716        C717   1.398       .  A
C716        H725   1.083       .  S
C717        C718   1.404       .  A
C717        H726   1.084       .  S
C718        C724   1.403       .  A
C718        C719   1.410       .  A
C719        C721   1.405       .  A
C719        C720   1.406       .  A
C720        H727   1.085       .  S
C721        C722   1.402       .  A
C721        H728   1.083       .  S
C722        C723   1.405       .  A
C722        H729   1.083       .  S
C723        C724   1.413       .  A
C724        H730   1.084       .  S
C731        C732   1.405       .  A
C731        C736   1.414       .  A
C732        C733   1.403       .  A
C732        H741   1.082       .  S
C733        C734   1.406       .  A
C733        H742   1.083       .  S
C734        C740   1.407       .  A
C734        C735   1.409       .  A
C735        C737   1.403       .  A
C735        C736   1.401       .  A
C736        H743   1.083       .  S
C737        C738   1.397       .  A
C737        H744   1.084       .  S
C738        C739   1.404       .  A
C738        H745   1.083       .  S
C739        C740   1.415       .  A
C740        H746   1.085       .  S
C747        C748   1.401       .  A
C747        C752   1.409       .  A
C748        C749   1.400       .  A
C748        H757   1.083       .  S
C749        C750   1.406       .  A
C749        H758   1.084       .  S
C750        C756   1.401       .  A
C750        C751   1.411       .  A
C751        C753   1.406       .  A
C751        C752   1.402       .  A
C752        H759   1.085       .  S
C753        C754   1.401       .  A
C753        H760   1.083       .  S
C754        C755   1.402       .  A
C754        H761   1.083       .  S
C755        C756   1.410       .  A
C756        H762   1.085       .  S
C763        C764   1.402       .  A
C763        C768   1.409       .  A
C764        C765   1.398       .  A
C764        H773   1.083       .  S
C765        C766   1.404       .  A
C765        H774   1.084       .  S
C766        C772   1.399       .  A
C766        C767   1.411       .  A
C767        C769   1.404       .  A
C767        C768   1.399       .  A
C768        H775   1.085       .  S
C769        C770   1.398       .  A
C769        H776   1.084       .  S
C770        C771   1.403       .  A
C770        H777   1.083       .  S
C771        C772   1.407       .  A
C772        H778   1.085       .  S
C779        C780   1.400       .  A
C779        C784   1.408       .  A
C780        C781   1.398       .  A
C780        H789   1.083       .  S
C781        C782   1.405       .  A
C781        H790   1.084       .  S
C782        C788   1.398       .  A
C782        C783   1.412       .  A
C783        C785   1.406       .  A
C783        C784   1.402       .  A
C784        H791   1.085       .  S
C785        C786   1.401       .  A
C785        H792   1.083       .  S
C786        C787   1.401       .  A
C786        H793   1.083       .  S
C787        C788   1.408       .  A
C788        H794   1.085       .  S
C795        C796   1.403       .  A
C795        C800   1.407       .  A
C796        C797   1.397       .  A
C796        H805   1.083       .  S
C797        C798   1.404       .  A
C797        H806   1.084       .  S
C798        C804   1.399       .  A
C798        C799   1.411       .  A
C799        C801   1.404       .  A
C799        C800   1.400       .  A
C800        H807   1.085       .  S
C801        C802   1.399       .  A
C801        H808   1.084       .  S
C802        C803   1.404       .  A
C802        H809   1.083       .  S
C803        C804   1.410       .  A
C804        H810   1.085       .  S
C811        C812   1.403       .  A
C811        C816   1.411       .  A
C812        C813   1.400       .  A
C812        H821   1.083       .  S
C813        C814   1.405       .  A
C813        H822   1.084       .  S
C814        C820   1.404       .  A
C814        C815   1.411       .  A
C815        C817   1.405       .  A
C815        C816   1.403       .  A
C816        H823   1.084       .  S
C817        C818   1.400       .  A
C817        H824   1.083       .  S
C818        C819   1.404       .  A
C818        H825   1.083       .  S
C819        C820   1.412       .  A
C820        H826   1.085       .  S
C827        C828   1.405       .  A
C827        C832   1.412       .  A
C828        C829   1.404       .  A
C828        H837   1.083       .  S
C829        C830   1.407       .  A
C829        H838   1.083       .  S
C830        C836   1.406       .  A
C830        C831   1.409       .  A
C831        C833   1.404       .  A
C831        C832   1.399       .  A
C832        H839   1.084       .  S
C833        C834   1.397       .  A
C833        H840   1.084       .  S
C834        C835   1.403       .  A
C834        H841   1.083       .  S
C835        C836   1.415       .  A
C836        H842   1.085       .  S
C843        C844   1.402       .  A
C843        C848   1.408       .  A
C844        C845   1.401       .  A
C844        H853   1.083       .  S
C845        C846   1.406       .  A
C845        H854   1.084       .  S
C846        C852   1.402       .  A
C846        C847   1.412       .  A
C847        C849   1.404       .  A
C847        C848   1.399       .  A
C848        H855   1.085       .  S
C849        C850   1.397       .  A
C849        H856   1.084       .  S
C850        C851   1.401       .  A
C850        H857   1.083       .  S
C851        C852   1.408       .  A
C852        H858   1.084       .  S
C859        C860   1.402       .  A
C859        C864   1.409       .  A
C860        C861   1.399       .  A
C860        H869   1.083       .  S
C861        C862   1.404       .  A
C861        H870   1.084       .  S
C862        C868   1.405       .  A
C862        C863   1.412       .  A
C863        C865   1.406       .  A
C863        C864   1.410       .  A
C864        H871   1.084       .  S
C865        C866   1.404       .  A
C865        H872   1.083       .  S
C866        C867   1.405       .  A
C866        H873   1.083       .  S
C867        C868   1.411       .  A
C868        H874   1.085       .  S
C875        C876   1.403       .  A
C875        C880   1.413       .  A
C876        C877   1.399       .  A
C876        H885   1.083       .  S
C877        C878   1.404       .  A
C877        H886   1.084       .  S
C878        C884   1.403       .  A
C878        C879   1.410       .  A
C879        C881   1.405       .  A
C879        C880   1.405       .  A
C880        H887   1.085       .  S
C881        C882   1.402       .  A
C881        H888   1.084       .  S
C882        C883   1.406       .  A
C882        H889   1.082       .  S
C883        C884   1.413       .  A
C884        H890   1.083       .  S
C891        C892   1.404       .  A
C891        C896   1.412       .  A
C892        C893   1.400       .  A
C892        H901   1.083       .  S
C893        C894   1.405       .  A
C893        H902   1.084       .  S
C894        C900   1.405       .  A
C894        C895   1.410       .  A
C895        C897   1.405       .  A
C895        C896   1.405       .  A
C896        H903   1.085       .  S
C897        C898   1.401       .  A
C897        H904   1.083       .  S
C898        C899   1.404       .  A
C898        H905   1.083       .  S
C899        C900   1.413       .  A
C900        H906   1.084       .  S
C907        C908   1.403       .  A
C907        C912   1.408       .  A
C908        C909   1.401       .  A
C908        H917   1.083       .  S
C909        C910   1.406       .  A
C909        H918   1.083       .  S
C910        C916   1.403       .  A
C910        C911   1.412       .  A
C911        C913   1.404       .  A
C911        C912   1.399       .  A
C912        H919   1.085       .  S
C913        C914   1.397       .  A
C913        H920   1.084   1_455  S
C914        C915   1.400       .  A
C914        H921   1.083       .  S
C915        C916   1.408       .  A
C916        H922   1.085       .  S
C923        C924   1.401       .  A
C923        C928   1.406       .  A
C924        C925   1.402       .  A
C924        H933   1.083       .  S
C925        C926   1.406       .  A
C925        H934   1.083       .  S
C926        C932   1.402       .  A
C926        C927   1.412       .  A
C927        C929   1.403       .  A
C927        C928   1.396       .  A
C928        H935   1.086       .  S
C929        C930   1.395       .  A
C929        H936   1.084       .  S
C930        C931   1.401       .  A
C930        H937   1.083       .  S
C931        C932   1.407       .  A
C932        H938   1.084       .  S
C939        C940   1.400       .  A
C939        C944   1.410       .  A
C940        C941   1.392       .  A
C940        H949   1.083       .  S
C941        C942   1.401       .  A
C941        H950   1.083       .  S
C942        C948   1.395       .  A
C942        C943   1.413       .  A
C943        C945   1.408       .  A
C943        C944   1.406       .  A
C944        H951   1.084       .  S
C945        C946   1.404       .  A
C945        H952   1.083       .  S
C946        C947   1.402       .  A
C946        H953   1.083       .  S
C947        C948   1.403       .  A
C948        H954   1.085       .  S
C955        C956   1.406       .  A
C955        C960   1.409       .  A
C956        C957   1.402       .  A
C956        H965   1.083       .  S
C957        C958   1.406       .  A
C957        H966   1.084       .  S
C958        C964   1.408       .  A
C958        C959   1.411       .  A
C959        C961   1.402       .  A
C959        C960   1.404       .  A
C960        H967   1.084       .  S
C961        C962   1.398       .  A
C961        H968   1.083       .  S
C962        C963   1.406       .  A
C962        H969   1.083       .  S
C963        C964   1.416       .  A
C964        H970   1.085       .  S
C971        C972   1.404       .  A
C971        C976   1.414       .  A
C972        C973   1.399       .  A
C972        H981   1.083       .  S
C973        C974   1.404       .  A
C973        H982   1.084       .  S
C974        C980   1.405       .  A
C974        C975   1.411       .  A
C975        C977   1.407       .  A
C975        C976   1.410       .  A
C976        H983   1.084       .  S
C977        C978   1.405       .  A
C977        H984   1.083       .  S
C978        C979   1.404       .  A
C978        H985   1.083       .  S
C979        C980   1.412       .  A
C980        H986   1.085       .  S
C987        C988   1.403       .  A
C987        C992   1.410       .  A
C988        C989   1.401       .  A
C988        H997   1.083       .  S
C989        C990   1.406       .  A
C989        H998   1.083       .  S
C990        C996   1.403       .  A
C990        C991   1.411       .  A
C991        C993   1.404       .  A
C991        C992   1.400       .  A
C992        H999   1.084       .  S
C993        C994   1.398       .  A
C993       H1000   1.084       .  S
C994        C995   1.404       .  A
C994       H1001   1.083       .  S
C995        C996   1.412       .  A
C996       H1002   1.085       .  S
C1003      C1004   1.402       .  A
C1003      C1008   1.409       .  A
C1004      C1005   1.399       .  A
C1004      H1013   1.083       .  S
C1005      C1006   1.405       .  A
C1005      H1014   1.084       .  S
C1006      C1012   1.399       .  A
C1006      C1007   1.411       .  A
C1007      C1009   1.405       .  A
C1007      C1008   1.399       .  A
C1008      H1015   1.085       .  S
C1009      C1010   1.398       .  A
C1009      H1016   1.084       .  S
C1010      C1011   1.402       .  A
C1010      H1017   1.083       .  S
C1011      C1012   1.408       .  A
C1012      H1018   1.085       .  S
C1019      C1020   1.404       .  A
C1019      C1024   1.408       .  A
C1020      C1021   1.402       .  A
C1020      H1029   1.083       .  S
C1021      C1022   1.405       .  A
C1021      H1030   1.083       .  S
C1022      C1028   1.407       .  A
C1022      C1023   1.413       .  A
C1023      C1025   1.404       .  A
C1023      C1024   1.404       .  A
C1024      H1031   1.085       .  S
C1025      C1026   1.398       .  A
C1025      H1032   1.084       .  S
C1026      C1027   1.402       .  A
C1026      H1033   1.083       .  S
C1027      C1028   1.407       .  A
C1028      H1034   1.084       .  S
C1035      C1036   1.404       .  A
C1035      C1040   1.413       .  A
C1036      C1037   1.399       .  A
C1036      H1045   1.083       .  S
C1037      C1038   1.404       .  A
C1037      H1046   1.084       .  S
C1038      C1044   1.402       .  A
C1038      C1039   1.410       .  A
C1039      C1041   1.406       .  A
C1039      C1040   1.405       .  A
C1040      H1047   1.085       .  S
C1041      C1042   1.402       .  A
C1041      H1048   1.084       .  S
C1042      C1043   1.404       .  A
C1042      H1049   1.083       .  S
C1043      C1044   1.411       .  A
C1044      H1050   1.084       .  S
C1051      C1052   1.403       .  A
C1051      C1056   1.407       .  A
C1052      C1053   1.402       .  A
C1052      H1061   1.083       .  S
C1053      C1054   1.406       .  A
C1053      H1062   1.083       .  S
C1054      C1060   1.406       .  A
C1054      C1055   1.413       .  A
C1055      C1057   1.404       .  A
C1055      C1056   1.401       .  A
C1056      H1063   1.085       .  S
C1057      C1058   1.397       .  A
C1057      H1064   1.083       .  S
C1058      C1059   1.401       .  A
C1058      H1065   1.083       .  S
C1059      C1060   1.407       .  A
C1060      H1066   1.084       .  S
C1067      C1068   1.404       .  A
C1067      C1072   1.410       .  A
C1068      C1069   1.401       .  A
C1068      H1077   1.083       .  S
C1069      C1070   1.406       .  A
C1069      H1078   1.084       .  S
C1070      C1076   1.403       .  A
C1070      C1071   1.411       .  A
C1071      C1073   1.404       .  A
C1071      C1072   1.401       .  A
C1072      H1079   1.084       .  S
C1073      C1074   1.398       .  A
C1073      H1080   1.084       .  S
C1074      C1075   1.404       .  A
C1074      H1081   1.083       .  S
C1075      C1076   1.412       .  A
C1076      H1082   1.085       .  S
C1083      C1084   1.400       .  A
C1083      C1088   1.408       .  A
C1084      C1085   1.394       .  A
C1084      H1093   1.083       .  S
C1085      C1086   1.402       .  A
C1085      H1094   1.083   1_556  S
C1086      C1092   1.397       .  A
C1086      C1087   1.413       .  A
C1087      C1089   1.407       .  A
C1087      C1088   1.406       .  A
C1088      H1095   1.084       .  S
C1089      C1090   1.403       .  A
C1089      H1096   1.083       .  S
C1090      C1091   1.402       .  A
C1090      H1097   1.083       .  S
C1091      C1092   1.405       .  A
C1092      H1098   1.085   1_556  S
C1099      C1100   1.401       .  A
C1099      C1104   1.407       .  A
C1100      C1101   1.394       .  A
C1100      H1109   1.084       .  S
C1101      C1102   1.402       .  A
C1101      H1110   1.083       .  S
C1102      C1108   1.396       .  A
C1102      C1103   1.413       .  A
C1103      C1105   1.406       .  A
C1103      C1104   1.404       .  A
C1104      H1111   1.084       .  S
C1105      C1106   1.402       .  A
C1105      H1112   1.083       .  S
C1106      C1107   1.401       .  A
C1106      H1113   1.083       .  S
C1107      C1108   1.405       .  A
C1108      H1114   1.085       .  S
C1115      C1116   1.405       .  A
C1115      C1120   1.404       .  A
C1116      C1117   1.403       .  A
C1116      H1125   1.083       .  S
C1117      C1118   1.406       .  A
C1117      H1126   1.084       .  S
C1118      C1124   1.408       .  A
C1118      C1119   1.414       .  A
C1119      C1121   1.402       .  A
C1119      C1120   1.400       .  A
C1120      H1127   1.085       .  S
C1121      C1122   1.394       .  A
C1121      H1128   1.084       .  S
C1122      C1123   1.401       .  A
C1122      H1129   1.083       .  S
C1123      C1124   1.407       .  A
C1124      H1130   1.084       .  S
C1131      C1132   1.403       .  A
C1131      C1136   1.408       .  A
C1132      C1133   1.396       .  A
C1132      H1141   1.083       .  S
C1133      C1134   1.401       .  A
C1133      H1142   1.084       .  S
C1134      C1140   1.402       .  A
C1134      C1135   1.413       .  A
C1135      C1137   1.406       .  A
C1135      C1136   1.411       .  A
C1136      H1143   1.084       .  S
C1137      C1138   1.404       .  A
C1137      H1144   1.083       .  S
C1138      C1139   1.406       .  A
C1138      H1145   1.083       .  S
C1139      C1140   1.406       .  A
C1140      H1146   1.085       .  S
C1147      C1148   1.404       .  A
C1147      C1152   1.411       .  A
C1148      C1149   1.400       .  A
C1148      H1157   1.083       .  S
C1149      C1150   1.404       .  A
C1149      H1158   1.083       .  S
C1150      C1156   1.404       .  A
C1150      C1151   1.411       .  A
C1151      C1153   1.404       .  A
C1151      C1152   1.404       .  A
C1152      H1159   1.084       .  S
C1153      C1154   1.399       .  A
C1153      H1160   1.084       .  S
C1154      C1155   1.404       .  A
C1154      H1161   1.083       .  S
C1155      C1156   1.412       .  A
C1156      H1162   1.085       .  S
C1163      C1164   1.403       .  A
C1163      C1168   1.405       .  A
C1164      C1165   1.402       .  A
C1164      H1173   1.083       .  S
C1165      C1166   1.406       .  A
C1165      H1174   1.083       .  S
C1166      C1172   1.406       .  A
C1166      C1167   1.413       .  A
C1167      C1169   1.403       .  A
C1167      C1168   1.399       .  A
C1168      H1175   1.085       .  S
C1169      C1170   1.396       .  A
C1169      H1176   1.084       .  S
C1170      C1171   1.400       .  A
C1170      H1177   1.083       .  S
C1171      C1172   1.407       .  A
C1172      H1178   1.084       .  S
C1179      C1180   1.407       .  A
C1179      C1184   1.413       .  A
C1180      C1181   1.403       .  A
C1180      H1189   1.082       .  S
C1181      C1182   1.406       .  A
C1181      H1190   1.083       .  S
C1182      C1188   1.407       .  A
C1182      C1183   1.409       .  A
C1183      C1185   1.402       .  A
C1183      C1184   1.400       .  A
C1184      H1191   1.083       .  S
C1185      C1186   1.395       .  A
C1185      H1192   1.084       .  S
C1186      C1187   1.406       .  A
C1186      H1193   1.083       .  S
C1187      C1188   1.415       .  A
C1188      H1194   1.085       .  S
C1195      C1196   1.402       .  A
C1195      C1200   1.409       .  A
C1196      C1197   1.401       .  A
C1196      H1205   1.083       .  S
C1197      C1198   1.406       .  A
C1197      H1206   1.083       .  S
C1198      C1204   1.403       .  A
C1198      C1199   1.411       .  A
C1199      C1201   1.404       .  A
C1199      C1200   1.400       .  A
C1200      H1207   1.085       .  S
C1201      C1202   1.399       .  A
C1201      H1208   1.084       .  S
C1202      C1203   1.402       .  A
C1202      H1209   1.083       .  S
C1203      C1204   1.411       .  A
C1204      H1210   1.084       .  S
C1211      C1212   1.405       .  A
C1211      C1216   1.412       .  A
C1212      C1213   1.402       .  A
C1212      H1221   1.082       .  S
C1213      C1214   1.406       .  A
C1213      H1222   1.083       .  S
C1214      C1220   1.404       .  A
C1214      C1215   1.410       .  A
C1215      C1217   1.404       .  A
C1215      C1216   1.399       .  A
C1216      H1223   1.083       .  S
C1217      C1218   1.397       .  A
C1217      H1224   1.084       .  S
C1218      C1219   1.402       .  A
C1218      H1225   1.083       .  S
C1219      C1220   1.412       .  A
C1220      H1226   1.085       .  S
C1227      C1228   1.402       .  A
C1227      C1232   1.408       .  A
C1228      C1229   1.403       .  A
C1228      H1237   1.083       .  S
C1229      C1230   1.407       .  A
C1229      H1238   1.083       .  S
C1230      C1236   1.406       .  A
C1230      C1231   1.412       .  A
C1231      C1233   1.404       .  A
C1231      C1232   1.401       .  A
C1232      H1239   1.085   1_455  S
C1233      C1234   1.398       .  A
C1233      H1240   1.084   1_455  S
C1234      C1235   1.401       .  A
C1234      H1241   1.083       .  S
C1235      C1236   1.411       .  A
C1236      H1242   1.084       .  S
C1243      C1244   1.401       .  A
C1243      C1248   1.411       .  A
C1244      C1245   1.397       .  A
C1244      H1253   1.083       .  S
C1245      C1246   1.404       .  A
C1245      H1254   1.084   1_556  S
C1246      C1252   1.396       .  A
C1246      C1247   1.411       .  A
C1247      C1249   1.407       .  A
C1247      C1248   1.402       .  A
C1248      H1255   1.084       .  S
C1249      C1250   1.402       .  A
C1249      H1256   1.083       .  S
C1250      C1251   1.401       .  A
C1250      H1257   1.083       .  S
C1251      C1252   1.407       .  A
C1252      H1258   1.086   1_556  S
C1259      C1260   1.405       .  A
C1259      C1264   1.412       .  A
C1260      C1261   1.401       .  A
C1260      H1269   1.083       .  S
C1261      C1262   1.405       .  A
C1261      H1270   1.083       .  S
C1262      C1268   1.405       .  A
C1262      C1263   1.411       .  A
C1263      C1265   1.403       .  A
C1263      C1264   1.402       .  A
C1264      H1271   1.084       .  S
C1265      C1266   1.397       .  A
C1265      H1272   1.084       .  S
C1266      C1267   1.405       .  A
C1266      H1273   1.083       .  S
C1267      C1268   1.412       .  A
C1268      H1274   1.085       .  S
C1275      C1276   1.401       .  A
C1275      C1280   1.409       .  A
C1276      C1277   1.402       .  A
C1276      H1285   1.083       .  S
C1277      C1278   1.408       .  A
C1277      H1286   1.083       .  S
C1278      C1284   1.403       .  A
C1278      C1279   1.410       .  A
C1279      C1281   1.405       .  A
C1279      C1280   1.399       .  A
C1280      H1287   1.085       .  S
C1281      C1282   1.399       .  A
C1281      H1288   1.084       .  S
C1282      C1283   1.403       .  A
C1282      H1289   1.083       .  S
C1283      C1284   1.411       .  A
C1284      H1290   1.084       .  S
C1291      C1292   1.405       .  A
C1291      C1296   1.413       .  A
C1292      C1293   1.399       .  A
C1292      H1301   1.083       .  S
C1293      C1294   1.404       .  A
C1293      H1302   1.084       .  S
C1294      C1300   1.404       .  A
C1294      C1295   1.411       .  A
C1295      C1297   1.405       .  A
C1295      C1296   1.406       .  A
C1296      H1303   1.085       .  S
C1297      C1298   1.402       .  A
C1297      H1304   1.083       .  S
C1298      C1299   1.405       .  A
C1298      H1305   1.083       .  S
C1299      C1300   1.413       .  A
C1300      H1306   1.084       .  S
C1307      C1308   1.404       .  A
C1307      C1312   1.413       .  A
C1308      C1309   1.399       .  A
C1308      H1317   1.083       .  S
C1309      C1310   1.404       .  A
C1309      H1318   1.083       .  S
C1310      C1316   1.404       .  A
C1310      C1311   1.411       .  A
C1311      C1313   1.405       .  A
C1311      C1312   1.405       .  A
C1312      H1319   1.084       .  S
C1313      C1314   1.401       .  A
C1313      H1320   1.084       .  S
C1314      C1315   1.405       .  A
C1314      H1321   1.083       .  S
C1315      C1316   1.411       .  A
C1316      H1322   1.085       .  S
C1323      C1324   1.407       .  A
C1323      C1328   1.414       .  A
C1324      C1325   1.396       .  A
C1324      H1333   1.082       .  S
C1325      C1326   1.401       .  A
C1325      H1334   1.084       .  S
C1326      C1332   1.401       .  A
C1326      C1327   1.411       .  A
C1327      C1329   1.406       .  A
C1327      C1328   1.405       .  A
C1328      H1335   1.085       .  S
C1329      C1330   1.401       .  A
C1329      H1336   1.084       .  S
C1330      C1331   1.404       .  A
C1330      H1337   1.083       .  S
C1331      C1332   1.407       .  A
C1332      H1338   1.085       .  S
C1339      C1340   1.403       .  A
C1339      C1344   1.410       .  A
C1340      C1341   1.399       .  A
C1340      H1349   1.083       .  S
C1341      C1342   1.405       .  A
C1341      H1350   1.084       .  S
C1342      C1348   1.401       .  A
C1342      C1343   1.411       .  A
C1343      C1345   1.404       .  A
C1343      C1344   1.400       .  A
C1344      H1351   1.084       .  S
C1345      C1346   1.398       .  A
C1345      H1352   1.084       .  S
C1346      C1347   1.403       .  A
C1346      H1353   1.083       .  S
C1347      C1348   1.411       .  A
C1348      H1354   1.085       .  S
C1355      C1356   1.401       .  A
C1355      C1360   1.405       .  A
C1356      C1357   1.395       .  A
C1356      H1365   1.083       .  S
C1357      C1358   1.402       .  A
C1357      H1366   1.084       .  S
C1358      C1364   1.400       .  A
C1358      C1359   1.413       .  A
C1359      C1361   1.405       .  A
C1359      C1360   1.405       .  A
C1360      H1367   1.084       .  S
C1361      C1362   1.401       .  A
C1361      H1368   1.083       .  S
C1362      C1363   1.403       .  A
C1362      H1369   1.083       .  S
C1363      C1364   1.406       .  A
C1364      H1370   1.085       .  S
C1371      C1372   1.406       .  A
C1371      C1376   1.414       .  A
C1372      C1373   1.403       .  A
C1372      H1381   1.082       .  S
C1373      C1374   1.406       .  A
C1373      H1382   1.083       .  S
C1374      C1380   1.408       .  A
C1374      C1375   1.409       .  A
C1375      C1377   1.403       .  A
C1375      C1376   1.405       .  A
C1376      H1383   1.083       .  S
C1377      C1378   1.399       .  A
C1377      H1384   1.083       .  S
C1378      C1379   1.407       .  A
C1378      H1385   1.082       .  S
C1379      C1380   1.417       .  A
C1380      H1386   1.085       .  S
C1387      C1388   1.402       .  A
C1387      C1392   1.411       .  A
C1388      C1389   1.399       .  A
C1388      H1397   1.083       .  S
C1389      C1390   1.405       .  A
C1389      H1398   1.083   1_556  S
C1390      C1396   1.400       .  A
C1390      C1391   1.410       .  A
C1391      C1393   1.408       .  A
C1391      C1392   1.405       .  A
C1392      H1399   1.084       .  S
C1393      C1394   1.403       .  A
C1393      H1400   1.083       .  S
C1394      C1395   1.401       .  A
C1394      H1401   1.083       .  S
C1395      C1396   1.411       .  A
C1396      H1402   1.085   1_556  S
C1403      C1404   1.401       .  A
C1403      C1408   1.408       .  A
C1404      C1405   1.393       .  A
C1404      H1413   1.084       .  S
C1405      C1406   1.401       .  A
C1405      H1414   1.084       .  S
C1406      C1412   1.400       .  A
C1406      C1407   1.414       .  A
C1407      C1409   1.406       .  A
C1407      C1408   1.410       .  A
C1408      H1415   1.084       .  S
C1409      C1410   1.404       .  A
C1409      H1416   1.083       .  S
C1410      C1411   1.405       .  A
C1410      H1417   1.083       .  S
C1411      C1412   1.404       .  A
C1412      H1418   1.085       .  S
C1419      C1420   1.402       .  A
C1419      C1424   1.410       .  A
C1420      C1421   1.397       .  A
C1420      H1429   1.083   1_455  S
C1421      C1422   1.404       .  A
C1421      H1430   1.084   1_455  S
C1422      C1428   1.397       .  A
C1422      C1423   1.411       .  A
C1423      C1425   1.408       .  A
C1423      C1424   1.404       .  A
C1424      H1431   1.084       .  S
C1425      C1426   1.403       .  A
C1425      H1432   1.083       .  S
C1426      C1427   1.402       .  A
C1426      H1433   1.083       .  S
C1427      C1428   1.408       .  A
C1428      H1434   1.086   1_455  S
