geometry optimzed in LAMMPS
_audit_creation_date              2020-12-01 
_audit_creation_method            'lammps2cif' 
_symmetry_space_group_name_H-M    'P1' 
_symmetry_Int_Tables_number       1 
_symmetry_cell_setting            triclinic 
loop_ 
_symmetry_equiv_pos_as_xyz 
  x,y,z 
_cell_length_a                    62.49134524 
_cell_length_b                    62.03323440576916 
_cell_length_c                    47.591220785900276 
_cell_angle_alpha                 90.03071703950796 
_cell_angle_beta                  90.01994460833252 
_cell_angle_gamma                 90.02087136839262 
loop_ 
_atom_site_label 
_atom_site_type_symbol 
_atom_site_fract_x 
_atom_site_fract_y 
_atom_site_fract_z 
_atom_site_charge 
O1          O  0.26691357  0.68176740  0.20948464    -0.57100
C2          C  0.28140669  0.63338693  0.26612601     0.75600
O3          O  0.22857621  0.68329129  0.28553543    -0.58200
C4          C  0.25059670  0.69264315  0.20250118     0.75500
C5          C  0.21818440  0.63311814  0.22712608     0.77900
Cd6        Cd  0.24887064  0.66326214  0.24889924     1.37500
O7          O  0.28555191  0.64854891  0.24911610    -0.57100
O8          O  0.23506432  0.63826324  0.21416944    -0.55900
C9          C  0.24481900  0.69300644  0.29522243     0.77900
O10         O  0.21538562  0.64202411  0.25088035    -0.58200
O11         O  0.26240834  0.63235961  0.27519424    -0.56700
O12         O  0.23395046  0.68978430  0.21712312    -0.56700
O13         O  0.26256226  0.68846953  0.28393563    -0.55900
O14         O  0.26273896  0.81204967  0.45817401    -0.57100
C15         C  0.28155870  0.85769342  0.02014891     0.75600
O16         O  0.21155170  0.84880259  0.50085760    -0.58200
C17         C  0.24655182  0.79998479  0.45440227     0.75500
C18         C  0.24598464  0.79946045  0.04328699     0.77900
Cd19       Cd  0.24721153  0.83096515  0.49916548     1.37500
O20         O  0.28155459  0.85129101  0.99483502    -0.57100
O21         O  0.25989345  0.79912477  0.02399067    -0.55900
C22         C  0.21486422  0.86066767  0.47961538     0.77900
O23         O  0.23247609  0.81476986  0.04250696    -0.58200
O24         O  0.26599205  0.85179734  0.03523632    -0.56700
O25         O  0.23098834  0.80267541  0.47097991    -0.56700
O26         O  0.23310438  0.85892240  0.46835623    -0.55900
O27         O  0.56674113  0.97827344  0.42053606    -0.57100
C28         C  0.60883259  0.96038197  0.35478872     0.75600
O29         O  0.56482373  0.01023307  0.33582280    -0.58200
C30         C  0.55306256  0.99319245  0.42372263     0.75500
C31         C  0.61204751  0.02706391  0.39626160     0.77900
Cd32       Cd  0.58238525  0.99417626  0.37750188     1.37500
O33         O  0.59937823  0.95786998  0.37815098    -0.57100
O34         O  0.61147463  0.00829422  0.40662444    -0.55900
C35         C  0.55107899  0.99527355  0.33317457     0.77900
O36         O  0.59895264  0.03063619  0.37647238    -0.58200
O37         O  0.60647730  0.97847265  0.34297088    -0.56700
O38         O  0.55357575  0.00845312  0.40615880    -0.56700
O39         O  0.55217702  0.98015141  0.35089356    -0.55900
O40         O  0.43441247  0.97756135  0.16698632    -0.57100
C41         C  0.38790467  0.96139527  0.10474108     0.75600
O42         O  0.39729203  0.03009271  0.12293616    -0.58200
C43         C  0.44317569  0.99483369  0.17549350     0.75500
C44         C  0.44706767  0.99509923  0.08327233     0.77900
Cd45       Cd  0.41539627  0.99463364  0.12707264     1.37500
O46         O  0.39421338  0.96070115  0.13007601    -0.57100
O47         O  0.44542745  0.98000659  0.10095918    -0.55900
C48         C  0.38376491  0.02623768  0.14219726     0.77900
O49         O  0.43433267  0.01087466  0.08646893    -0.58200
O50         O  0.39420827  0.97725637  0.09029125    -0.56700
O51         O  0.43877869  0.01179824  0.16195582    -0.56700
O52         O  0.38520647  0.00802860  0.15391224    -0.55900
O53         O  0.73663904  0.31775175  0.29015632    -0.57100
C54         C  0.71817722  0.36097030  0.22757604     0.75600
O55         O  0.78905910  0.34958648  0.24560442    -0.58200
C56         C  0.75288088  0.30628120  0.29582330     0.75500
C57         C  0.75371180  0.30326359  0.20209306     0.77900
Cd58       Cd  0.75242606  0.33394969  0.24712487     1.37500
O59         O  0.71630382  0.35041361  0.25026294    -0.57100
O60         O  0.74009148  0.30228072  0.22166746    -0.55900
C61         C  0.78485745  0.36501377  0.26218238     0.77900
O62         O  0.76703133  0.31865923  0.20323481    -0.58200
O63         O  0.73541358  0.35837292  0.21414037    -0.56700
O64         O  0.76844648  0.30776895  0.27899348    -0.56700
O65         O  0.76589171  0.36592183  0.27130628    -0.55900
O66         O  0.76545666  0.18224418  0.45522309    -0.57100
C67         C  0.78176197  0.13974767  0.02192002     0.75600
O68         O  0.73113820  0.18431755  0.03766103    -0.58200
C69         C  0.75170845  0.19719922  0.45290207     0.75500
C70         C  0.71640105  0.13560488  0.47720095     0.77900
Cd71       Cd  0.74836474  0.16595821  0.49733482     1.37500
O72         O  0.78408664  0.14795803  0.99769769    -0.57100
O73         O  0.73433391  0.13825898  0.46537506    -0.55900
C74         C  0.74673489  0.19703814  0.04194620     0.77900
O75         O  0.71300020  0.14725553  0.49862410    -0.58200
O76         O  0.76403427  0.14315528  0.03386885    -0.56700
O77         O  0.73636486  0.19690039  0.47020575    -0.56700
O78         O  0.76247079  0.19523109  0.02538578    -0.55900
O79         O  0.40260971  0.46497012  0.37878706    -0.57100
C80         C  0.44854652  0.50152569  0.33626649     0.75600
O81         O  0.39825148  0.53779779  0.37650237    -0.58200
C82         C  0.38839008  0.46824933  0.39725901     0.75500
C83         C  0.44451174  0.50441445  0.42716435     0.77900
Cd84       Cd  0.41670732  0.50221296  0.37944079     1.37500
O85         O  0.43462946  0.48667421  0.33809407    -0.57100
O86         O  0.44652706  0.49051460  0.40792461    -0.55900
C87         C  0.38937617  0.53356134  0.35311790     0.77900
O88         O  0.42922437  0.51776578  0.42472044    -0.58200
O89         O  0.44763481  0.51643230  0.35439709    -0.56700
O90         O  0.38725087  0.48724112  0.40683129    -0.56700
O91         O  0.39293827  0.51506545  0.34312004    -0.55900
O92         O  0.56714861  0.51662612  0.17163029    -0.57100
C93         C  0.61376085  0.52989370  0.10976099     0.75600
O94         O  0.59787633  0.46206573  0.12940861    -0.58200
C95         C  0.55419956  0.50133119  0.17660910     0.75500
C96         C  0.55303184  0.49872585  0.08350714     0.77900
Cd97       Cd  0.58282274  0.49904095  0.12961168     1.37500
O98         O  0.60085402  0.53454985  0.12938795    -0.57100
O99         O  0.55565906  0.51491103  0.09932399    -0.55900
C100        C  0.60921082  0.46485333  0.15120775     0.77900
O101        O  0.56461430  0.48245774  0.08880450    -0.58200
O102        O  0.61256720  0.51092833  0.10006774    -0.56700
O103        O  0.55419916  0.48590950  0.15927273    -0.56700
O104        O  0.60838023  0.48343021  0.16214192    -0.55900
O105        O  0.76792802  0.68358528  0.03977893    -0.57100
C106        C  0.78326993  0.64017576  0.47458759     0.75600
O107        O  0.71382852  0.64627651  0.00417088    -0.58200
C108        C  0.75092843  0.69121055  0.05052461     0.75500
C109        C  0.74107720  0.69700395  0.45897328     0.77900
Cd110      Cd  0.74907570  0.66463453  0.00085354     1.37500
O111        O  0.78615749  0.64960052  0.49795274    -0.57100
O112        O  0.75465924  0.69945445  0.47838365    -0.55900
C113        C  0.71981897  0.63283508  0.02265305     0.77900
O114        O  0.73058660  0.67950375  0.45903905    -0.58200
O115        O  0.76485069  0.64209495  0.46393490    -0.56700
O116        O  0.73365020  0.68645210  0.03818347    -0.56700
O117        O  0.73935614  0.63355759  0.02942983    -0.55900
O118        O  0.73647668  0.81352078  0.21044136    -0.57100
C119        C  0.71862095  0.86085829  0.27079303     0.75600
O120        O  0.76763947  0.81354540  0.29443288    -0.58200
C121        C  0.75062359  0.79886106  0.20939464     0.75500
C122        C  0.78375459  0.85985067  0.23088494     0.77900
Cd123      Cd  0.75143100  0.83126378  0.25271914     1.37500
O124        O  0.71499644  0.84699764  0.25174915    -0.57100
O125        O  0.76608560  0.85645635  0.21874767    -0.55900
C126        C  0.75078598  0.80306634  0.30041876     0.77900
O127        O  0.78665132  0.85002893  0.25398692    -0.58200
O128        O  0.73738524  0.86113810  0.28075306    -0.56700
O129        O  0.76501216  0.79955656  0.22804913    -0.56700
O130        O  0.73479802  0.80609378  0.28462088    -0.55900
O131        O  0.89781862  0.03745945  0.12696238    -0.57100
C132        C  0.94569302  0.00160694  0.17066888     0.75600
O133        O  0.89712099  0.96510525  0.12640988    -0.58200
C134        C  0.88540460  0.03364382  0.10642820     0.75500
C135        C  0.94497465  0.00241905  0.08015808     0.77900
Cd136      Cd  0.91484684  0.00126449  0.12596315     1.37500
O137        O  0.93173056  0.01641108  0.16876759    -0.57100
O138        O  0.94298006  0.01734819  0.09801902    -0.55900
C139        C  0.88625186  0.96889444  0.14844403     0.77900
O140        O  0.93230678  0.98649410  0.08285592    -0.58200
O141        O  0.94499516  0.98690955  0.15225872    -0.56700
O142        O  0.88692728  0.01517200  0.09536912    -0.56700
O143        O  0.88877234  0.98731918  0.15924152    -0.55900
O144        O  0.10058809  0.96489175  0.37479282    -0.57100
C145        C  0.05333536  0.99788409  0.32824667     0.75600
O146        O  0.06431435  0.01921389  0.41527672    -0.58200
C147        C  0.11245943  0.96888331  0.39579801     0.75500
C148        C  0.11162137  0.03329801  0.35506352     0.77900
Cd149      Cd  0.08234513  0.00060515  0.37541899     1.37500
O150        O  0.06266017  0.98112775  0.33733810    -0.57100
O151        O  0.11003272  0.01473019  0.34418310    -0.55900
C152        C  0.05336146  0.00293867  0.42256208     0.77900
O153        O  0.09963713  0.03683907  0.37605327    -0.58200
O154        O  0.05723912  0.01526516  0.34112557    -0.56700
O155        O  0.11028408  0.98728649  0.40682376    -0.56700
O156        O  0.05550343  0.98626102  0.40760453    -0.55900
O157        O  0.26797520  0.18253380  0.28527295    -0.57100
C158        C  0.28161111  0.13477153  0.22338171     0.75600
O159        O  0.21482238  0.14719931  0.24838271    -0.58200
C160        C  0.25343563  0.19668456  0.28785014     0.75500
C161        C  0.24954290  0.19137005  0.19618894     0.77900
Cd162      Cd  0.25058552  0.16432347  0.24495695     1.37500
O163        O  0.28624766  0.14722781  0.24366373    -0.57100
O164        O  0.26630615  0.18819612  0.21046124    -0.55900
C165        C  0.21959916  0.13526076  0.26912493     0.77900
O166        O  0.23262275  0.18201633  0.20458039    -0.58200
O167        O  0.26268402  0.13589605  0.21400217    -0.56700
O168        O  0.23804519  0.19553974  0.27071350    -0.56700
O169        O  0.23853101  0.13693729  0.27819700    -0.55900
O170        O  0.23433896  0.31290545  0.45578189    -0.57100
C171        C  0.21915125  0.35825724  0.01790201     0.75600
O172        O  0.26869519  0.31357870  0.03731267    -0.58200
C173        C  0.25078738  0.30251115  0.44805097     0.75500
C174        C  0.28473182  0.35989487  0.47649581     0.77900
Cd175      Cd  0.25234495  0.33056195  0.49569430     1.37500
O176        O  0.21681276  0.34823178  0.99491691    -0.57100
O177        O  0.26628711  0.35893448  0.46557576    -0.55900
C178        C  0.25460819  0.29887094  0.03852494     0.77900
O179        O  0.28817451  0.34744270  0.49711717    -0.58200
O180        O  0.23711589  0.35605993  0.02983409    -0.56700
O181        O  0.26771660  0.30553240  0.46209485    -0.56700
O182        O  0.24008832  0.29941940  0.02009178    -0.55900
O183        O  0.93913195  0.51764129  0.33660645    -0.57100
C184        C  0.88753916  0.53361390  0.39155107     0.75600
O185        O  0.89730428  0.46553645  0.37516138    -0.58200
C186        C  0.94746444  0.50007593  0.32841978     0.75500
C187        C  0.94546800  0.49775997  0.42109613     0.77900
Cd188      Cd  0.91690497  0.50028892  0.37376508     1.37500
O189        O  0.90033481  0.53654167  0.37123736    -0.57100
O190        O  0.94281860  0.51478691  0.40699753    -0.55900
C191        C  0.88835985  0.46823254  0.35147736     0.77900
O192        O  0.93477929  0.48141653  0.41335911    -0.58200
O193        O  0.88787246  0.51507542  0.40265470    -0.56700
O194        O  0.94185154  0.48321479  0.34132563    -0.56700
O195        O  0.89207253  0.48594455  0.33918870    -0.55900
O196        O  0.10079260  0.45782727  0.12608898    -0.57100
C197        C  0.05473216  0.49368894  0.17062983     0.75600
O198        O  0.10058268  0.53102211  0.12390866    -0.58200
C199        C  0.11272464  0.46067125  0.10489441     0.75500
C200        C  0.05418261  0.49501745  0.07788093     0.77900
Cd201      Cd  0.08425025  0.49425196  0.12407679     1.37500
O202        O  0.06682516  0.47763762  0.16598671    -0.57100
O203        O  0.05450102  0.48052385  0.09648228    -0.55900
C204        C  0.11241629  0.52746450  0.14508400     0.77900
O205        O  0.06823254  0.50969098  0.08035266    -0.58200
O206        O  0.05677782  0.50948714  0.15410364    -0.56700
O207        O  0.11148492  0.47900235  0.09334953    -0.56700
O208        O  0.11174177  0.50859683  0.15502327    -0.55900
C209        C  0.96080032  0.49695533  0.44470891    -0.11200
C210        C  0.96458945  0.51501918  0.46212094     0.04300
C211        C  0.98038976  0.51405713  0.48290361    -0.11800
C212        C  0.99270493  0.49539633  0.48668212     0.19100
C213        C  0.98865917  0.47722913  0.46970053    -0.08800
C214        C  0.97273998  0.47808663  0.44904284    -0.01800
H215        H  0.98280078  0.52794093  0.99634037     0.05600
C216        C  0.00887781  0.49506248  0.00926607     0.21100
H217        H  0.97013060  0.46414535  0.43575193     0.10800
C218        C  0.00566025  0.48147486  0.03233083    -0.15100
C219        C  0.02013206  0.48102929  0.05472626     0.03800
C220        C  0.03833877  0.49471433  0.05451349    -0.10500
C221        C  0.04146796  0.50835281  0.03123749    -0.00500
C222        C  0.02700394  0.50853970  0.00872682    -0.05600
H223        H  0.99161745  0.47122720  0.03300322     0.06800
H224        H  0.05534299  0.51880205  0.03035127     0.10200
Br225      Br  0.00510629  0.45124777  0.47301705    -0.05300
Br226      Br  0.94803266  0.54104668  0.45965877    -0.02300
Br227      Br  0.01324226  0.46162394  0.08488242     0.00600
Br228      Br  0.03325900  0.52656007  0.47716706    -0.03800
C229        C  0.96321237  0.49907336  0.30534775    -0.11200
C230        C  0.96229310  0.48269543  0.28476052     0.04300
C231        C  0.97819702  0.48139510  0.26413784    -0.11800
C232        C  0.99510647  0.49622102  0.26360086     0.19100
C233        C  0.99593765  0.51270300  0.28390234    -0.08800
C234        C  0.98000936  0.51408573  0.30452705    -0.01800
H235        H  0.97717020  0.46901480  0.24812492     0.05600
C236        C  0.01065985  0.49534434  0.24026380     0.21100
H237        H  0.98096663  0.52666970  0.32027055     0.10800
C238        C  0.00698111  0.50816901  0.21661249    -0.15100
C239        C  0.02097894  0.50779664  0.19373908     0.03800
C240        C  0.03917595  0.49418178  0.19419510    -0.10500
C241        C  0.04268648  0.48114216  0.21795666    -0.00500
C242        C  0.02866955  0.48176223  0.24095970    -0.05600
H243        H  0.99301617  0.51851409  0.21592811     0.06800
H244        H  0.05657727  0.47072281  0.21889219     0.10200
Br245      Br  0.01866058  0.53348168  0.28424000    -0.05300
Br246      Br  0.93887592  0.46268677  0.28254692    -0.02300
Br247      Br  0.01348058  0.52573496  0.16233199     0.00600
Br248      Br  0.03491015  0.46431782  0.27319333    -0.03800
C249        C  0.12744206  0.44388944  0.09364175    -0.11200
C250        C  0.12854641  0.42253703  0.10419399     0.04300
C251        C  0.14272563  0.40768915  0.09201244    -0.11800
C252        C  0.15598191  0.41367956  0.06956723     0.19100
C253        C  0.15503260  0.43483736  0.05921070    -0.08800
C254        C  0.14087334  0.44961987  0.07109772    -0.01800
H255        H  0.14349927  0.39139735  0.10014734     0.05600
C256        C  0.17117206  0.39800602  0.05738964     0.21100
H257        H  0.14056876  0.46582443  0.06264906     0.10800
C258        C  0.16756649  0.39001865  0.03023753    -0.15100
C259        C  0.18276383  0.37702736  0.01677993     0.03800
C260        C  0.20203376  0.37163398  0.03080711    -0.10500
C261        C  0.20522750  0.37934507  0.05834200    -0.00500
C262        C  0.19008450  0.39243184  0.07155743    -0.05600
H263        H  0.15307633  0.39446117  0.01914982     0.06800
H264        H  0.21975368  0.37544831  0.06967201     0.10200
Br265      Br  0.17342864  0.44455688  0.02949592    -0.05300
Br266      Br  0.11142150  0.41228423  0.13491796    -0.02300
Br267      Br  0.17608911  0.36772764  0.47900016     0.00600
Br268      Br  0.19650007  0.40335006  0.10834494    -0.03800
C269        C  0.24980562  0.20582594  0.17156557    -0.11200
C270        C  0.26803691  0.20761608  0.15412857     0.04300
C271        C  0.26842912  0.22290035  0.13259824    -0.11800
C272        C  0.25093926  0.23651286  0.12802883     0.19100
C273        C  0.23254015  0.23443845  0.14481041    -0.08800
C274        C  0.23203011  0.21908029  0.16632849    -0.01800
H275        H  0.28246446  0.22420912  0.11933264     0.05600
C276        C  0.25214262  0.25252239  0.10527133     0.21100
H277        H  0.21796386  0.21796610  0.17955341     0.10800
C278        C  0.24439857  0.24701218  0.07864264    -0.15100
C279        C  0.24552127  0.26164886  0.05639410     0.03800
C280        C  0.25457901  0.28228870  0.06075205    -0.10500
C281        C  0.26277628  0.28753409  0.08737819    -0.00500
C282        C  0.26152306  0.27285583  0.10960244    -0.05600
H283        H  0.23752330  0.23119365  0.07515734     0.06800
H284        H  0.26968221  0.30329766  0.09113451     0.10200
Br285      Br  0.20811093  0.25269736  0.13951335    -0.05300
Br286      Br  0.29251965  0.18908624  0.15767066    -0.02300
Br287      Br  0.23532515  0.25193842  0.02043408     0.00600
Br288      Br  0.27234178  0.28133415  0.14567128    -0.03800
C289        C  0.25069274  0.28768206  0.42380989    -0.11200
C290        C  0.23264265  0.27516211  0.41655655     0.04300
C291        C  0.23388145  0.26068873  0.39404867    -0.11800
C292        C  0.25286957  0.25839918  0.37864372     0.19100
C293        C  0.27071447  0.27116610  0.38548862    -0.08800
C294        C  0.26958237  0.28549000  0.40806415    -0.01800
H295        H  0.22008002  0.25089716  0.38879935     0.05600
C296        C  0.25364810  0.24277645  0.35530336     0.21100
H297        H  0.28352112  0.29512034  0.41318408     0.10800
C298        C  0.24236342  0.24730268  0.33060929    -0.15100
C299        C  0.24245555  0.23283730  0.30808801     0.03800
C300        C  0.25398567  0.21325065  0.31021897    -0.10500
C301        C  0.26551433  0.20895049  0.33494051    -0.00500
C302        C  0.26527009  0.22342446  0.35746143    -0.05600
H303        H  0.23350919  0.26225955  0.32882250     0.06800
H304        H  0.27426718  0.19397279  0.33712435     0.10200
Br305      Br  0.29674575  0.27000013  0.36415426    -0.05300
Br306      Br  0.20644953  0.27590022  0.43762519    -0.02300
Br307      Br  0.22714977  0.24145386  0.27489679     0.00600
Br308      Br  0.28020999  0.21563762  0.39119712    -0.03800
C309        C  0.12676254  0.04956941  0.34331539    -0.11200
C310        C  0.12955148  0.07055636  0.35463250     0.04300
C311        C  0.14439739  0.08473419  0.34244122    -0.11800
C312        C  0.15644353  0.07858338  0.31893826     0.19100
C313        C  0.15345736  0.05800534  0.30733579    -0.08800
C314        C  0.13886537  0.04374332  0.31951207    -0.01800
H315        H  0.14658833  0.10066126  0.35134870     0.05600
C316        C  0.17236297  0.09358808  0.30688540     0.21100
H317        H  0.13698466  0.02796010  0.31009047     0.10800
C318        C  0.19405891  0.09059087  0.31307624    -0.15100
C319        C  0.20977202  0.10372691  0.30098326     0.03800
C320        C  0.20376649  0.12048245  0.28228849    -0.10500
C321        C  0.18191012  0.12332197  0.27617972    -0.00500
C322        C  0.16630618  0.11005327  0.28825744    -0.05600
H323        H  0.19880678  0.07768924  0.32709636     0.06800
H324        H  0.17685775  0.13594809  0.26193759     0.10200
Br325      Br  0.16869186  0.04889601  0.27439987    -0.05300
Br326      Br  0.11381734  0.08128365  0.38634087    -0.02300
Br327      Br  0.23895178  0.09687122  0.31016215     0.00600
Br328      Br  0.13695277  0.11449126  0.27806939    -0.03800
C329        C  0.96127744  0.00360376  0.05745342    -0.11200
C330        C  0.97942150  0.01729556  0.05923777     0.04300
C331        C  0.99464361  0.01733460  0.03768722    -0.11800
C332        C  0.99195562  0.00462468  0.01360930     0.19100
C333        C  0.97368077  0.99137066  0.01144205    -0.08800
C334        C  0.95873606  0.99075239  0.03335285    -0.01800
H335        H  0.00875300  0.02737117  0.03975874     0.05600
C336        C  0.00843150  0.00497948  0.49119164     0.21100
H337        H  0.94484588  0.98041881  0.03126844     0.10800
C338        C  0.01876862  0.98562295  0.48434963    -0.15100
C339        C  0.03344067  0.98456553  0.46224210     0.03800
C340        C  0.03862510  0.00340561  0.44694719    -0.10500
C341        C  0.02910908  0.02302493  0.45479146    -0.00500
C342        C  0.01399915  0.02391810  0.47650210    -0.05600
H343        H  0.01514561  0.97091460  0.99587573     0.06800
H344        H  0.03287458  0.03763496  0.44335302     0.10200
Br345      Br  0.96777085  0.97444402  0.47866054    -0.05300
Br346      Br  0.98507204  0.03611691  0.09049041    -0.02300
Br347      Br  0.04595113  0.95686515  0.45468884     0.00600
Br348      Br  0.00055631  0.05114326  0.48398523    -0.03800
C349        C  0.03840699  0.99742792  0.30414623    -0.08000
C350        C  0.03835474  0.01408586  0.28394499     0.04300
C351        C  0.02285421  0.01430789  0.26273968    -0.11800
C352        C  0.00730103  0.99809070  0.26113931     0.19100
C353        C  0.00777248  0.98100790  0.28060179    -0.08800
C354        C  0.02329075  0.98074591  0.30189805    -0.01800
H355        H  0.02294966  0.02717728  0.24735616     0.05600
C356        C  0.99127643  0.99895416  0.23829870     0.21100
H357        H  0.02323098  0.96775960  0.31710712     0.10800
C358        C  0.99729849  0.99251805  0.21122680    -0.15100
C359        C  0.98277783  0.99343560  0.18888246     0.03800
C360        C  0.96178892  0.00117287  0.19343828    -0.10500
C361        C  0.95593501  0.00802521  0.22049526    -0.00500
C362        C  0.97043077  0.00681104  0.24289294    -0.05600
H363        H  0.01342326  0.98677428  0.20747373     0.06800
H364        H  0.93989164  0.01394174  0.22436824     0.10200
Br365      Br  0.98761018  0.95773594  0.27863565    -0.05300
Br366      Br  0.05986106  0.03621211  0.28325219    -0.02300
Br367      Br  0.99300939  0.98497730  0.15244198     0.00600
Br368      Br  0.96111710  0.01605729  0.27934580    -0.03800
C369        C  0.79994436  0.87475403  0.21886432    -0.11200
C370        C  0.80035955  0.88004089  0.18990919     0.04300
C371        C  0.81556325  0.89460262  0.17970882    -0.11800
C372        C  0.83052285  0.90425101  0.19766323     0.19100
C373        C  0.83014499  0.89912962  0.22650583    -0.08800
C374        C  0.81510393  0.88434536  0.23679409    -0.01800
H375        H  0.81559001  0.89862428  0.15755353     0.05600
C376        C  0.84553573  0.92041322  0.18588894     0.21100
H377        H  0.81502838  0.88065664  0.25903998     0.10800
C378        C  0.84326667  0.94206281  0.19363296    -0.15100
C379        C  0.85613042  0.95810502  0.18172462     0.03800
C380        C  0.87173686  0.95259461  0.16128320    -0.10500
C381        C  0.87385202  0.93081621  0.15349610    -0.00500
C382        C  0.86100419  0.91481567  0.16564045    -0.05600
H383        H  0.83111699  0.94656067  0.20877876     0.06800
H384        H  0.88575897  0.92611063  0.13814527     0.10200
Br385      Br  0.84989084  0.91177663  0.25262985    -0.05300
Br386      Br  0.78119183  0.86777214  0.16264306    -0.02300
Br387      Br  0.85054376  0.98711611  0.19389022     0.00600
Br388      Br  0.86561871  0.88543621  0.15456008    -0.03800
C389        C  0.80018764  0.62699084  0.46093376    -0.11200
C390        C  0.80020907  0.62268537  0.43168673     0.04300
C391        C  0.81522416  0.60837910  0.42028407    -0.11800
C392        C  0.83044479  0.59829166  0.43740090     0.19100
C393        C  0.83124392  0.60342287  0.46618084    -0.08800
C394        C  0.81620830  0.61763322  0.47771723    -0.01800
H395        H  0.81481532  0.60482898  0.39799430     0.05600
C396        C  0.84479224  0.58181824  0.42511446     0.21100
H397        H  0.81670602  0.62088421  0.50007299     0.10800
C398        C  0.86254172  0.58822849  0.40919104    -0.15100
C399        C  0.87667807  0.57294393  0.39791194     0.03800
C400        C  0.87288608  0.55066764  0.40214276    -0.10500
C401        C  0.85490536  0.54441822  0.41797314    -0.00500
C402        C  0.84095573  0.55972410  0.42936289    -0.05600
H403        H  0.86565806  0.60524064  0.40604434     0.06800
H404        H  0.85162587  0.52749363  0.42156812     0.10200
Br405      Br  0.85249319  0.59113479  0.49046651    -0.05300
Br406      Br  0.78080322  0.63626244  0.40584864    -0.02300
Br407      Br  0.90150780  0.58380644  0.37883066     0.00600
Br408      Br  0.81675822  0.54975197  0.45053575    -0.03800
C409        C  0.75120182  0.70549855  0.07556912    -0.11200
C410        C  0.73285354  0.70868048  0.09257697     0.04300
C411        C  0.73337655  0.72371044  0.11448726    -0.11800
C412        C  0.75190000  0.73562100  0.12013752     0.19100
C413        C  0.77040124  0.73200333  0.10401010    -0.08800
C414        C  0.76996230  0.71704491  0.08196104    -0.01800
H415        H  0.71920574  0.72617737  0.12721593     0.05600
C416        C  0.75150803  0.75181839  0.14289579     0.21100
H417        H  0.78421194  0.71487191  0.06931593     0.10800
C418        C  0.76012403  0.74659714  0.16918719    -0.15100
C419        C  0.75974085  0.76147985  0.19130836     0.03800
C420        C  0.75063606  0.78213745  0.18716118    -0.10500
C421        C  0.74170707  0.78711339  0.16085800    -0.00500
C422        C  0.74212876  0.77218548  0.13882925    -0.05600
H423        H  0.76701961  0.73078162  0.17255335     0.06800
H424        H  0.73469846  0.80283767  0.15721553     0.10200
Br425      Br  0.79632455  0.74772239  0.11081607    -0.05300
Br426      Br  0.70676069  0.69262945  0.08808181    -0.02300
Br427      Br  0.77078455  0.75197860  0.22689886     0.00600
Br428      Br  0.73015364  0.78044333  0.10332265    -0.03800
C429        C  0.73868420  0.71326554  0.43659494    -0.11200
C430        C  0.74105095  0.73551624  0.44208954     0.04300
C431        C  0.74218677  0.75011095  0.41976491    -0.11800
C432        C  0.74092257  0.74290216  0.39193712     0.19100
C433        C  0.73751147  0.72089313  0.38642264    -0.08800
C434        C  0.73627237  0.70626288  0.40871440    -0.01800
H435        H  0.74433418  0.76712779  0.42409057     0.05600
C436        C  0.74352173  0.75855872  0.36893064     0.21100
H437        H  0.73444865  0.68924552  0.40415635     0.10800
C438        C  0.76395861  0.76233747  0.35782592    -0.15100
C439        C  0.76695151  0.77697666  0.33576585     0.03800
C440        C  0.74917070  0.78813588  0.32457595    -0.10500
C441        C  0.72875709  0.78428063  0.33600811    -0.00500
C442        C  0.72586567  0.76971555  0.35801358    -0.05600
H443        H  0.77759460  0.75364903  0.36616786     0.06800
H444        H  0.71488737  0.79265458  0.32779785     0.10200
Br445      Br  0.73526602  0.71010523  0.34876156    -0.05300
Br446      Br  0.74220131  0.74697191  0.47955658    -0.02300
Br447      Br  0.79537432  0.77982892  0.32093052     0.00600
Br448      Br  0.69751576  0.76535884  0.37237439    -0.03800
C449        C  0.62952449  0.54548010  0.09841857    -0.11200
C450        C  0.62595674  0.56799333  0.09842116     0.04300
C451        C  0.64094156  0.58178531  0.08593045    -0.11800
C452        C  0.65954144  0.57360241  0.07339697     0.19100
C453        C  0.66331628  0.55126799  0.07377576    -0.08800
C454        C  0.64833480  0.53743453  0.08604122    -0.01800
H455        H  0.63797762  0.59899451  0.08571151     0.05600
C456        C  0.67487876  0.58859942  0.06010356     0.21100
H457        H  0.65141711  0.52024878  0.08582290     0.10800
C458        C  0.69410282  0.59329326  0.07388747    -0.15100
C459        C  0.70899089  0.60751312  0.06214317     0.03800
C460        C  0.70475107  0.61731824  0.03581472    -0.10500
C461        C  0.68533831  0.61258566  0.02215957    -0.00500
C462        C  0.67049407  0.59835592  0.03406077    -0.05600
H463        H  0.69743272  0.58598260  0.09409785     0.06800
H464        H  0.68170296  0.61987835  0.00204063     0.10200
Br465      Br  0.68840894  0.53890422  0.05705010    -0.05300
Br466      Br  0.60046618  0.58093373  0.11333367    -0.02300
Br467      Br  0.73402888  0.61350517  0.08428861     0.00600
Br468      Br  0.64464156  0.59230384  0.01378616    -0.03800
C469        C  0.30120109  0.37460028  0.46496725    -0.11200
C470        C  0.31846917  0.38259896  0.48112523     0.04300
C471        C  0.33292175  0.39717386  0.46909316    -0.11800
C472        C  0.33059842  0.40382243  0.44112738     0.19100
C473        C  0.31381770  0.39549880  0.42480261    -0.08800
C474        C  0.29925922  0.38111494  0.43676126    -0.01800
H475        H  0.34583620  0.40365807  0.48173355     0.05600
C476        C  0.34525240  0.42018746  0.42963335     0.21100
H477        H  0.28631174  0.37501562  0.42386420     0.10800
C478        C  0.36339345  0.41366885  0.41463288    -0.15100
C479        C  0.37760600  0.42888101  0.40348080     0.03800
C480        C  0.37368793  0.45116731  0.40745545    -0.10500
C481        C  0.35529051  0.45748769  0.42241077    -0.00500
C482        C  0.34113261  0.44224404  0.43335380    -0.05600
H483        H  0.36653971  0.39663772  0.41170962     0.06800
H484        H  0.35179884  0.47441445  0.42561048     0.10200
Br485      Br  0.30997529  0.40373391  0.38627418    -0.05300
Br486      Br  0.32326524  0.37560584  0.01974435    -0.02300
Br487      Br  0.40223908  0.41781722  0.38416546     0.00600
Br488      Br  0.31621803  0.45221563  0.45302764    -0.03800
C489        C  0.45987532  0.50500217  0.45058833    -0.11200
C490        C  0.45338762  0.50657348  0.47887758     0.04300
C491        C  0.46876187  0.50579006  0.50027540    -0.11800
C492        C  0.49054685  0.50349219  0.49381906     0.19100
C493        C  0.49701057  0.50212332  0.46560656    -0.08800
C494        C  0.48169748  0.50272343  0.44428359    -0.01800
H495        H  0.46389629  0.50696031  0.02208772     0.05600
C496        C  0.50654626  0.50252133  0.01687733     0.21100
H497        H  0.48687213  0.50148541  0.42261335     0.10800
C498        C  0.51467623  0.48237228  0.02474885    -0.15100
C499        C  0.52983594  0.48054855  0.04628105     0.03800
C500        C  0.53724134  0.49930557  0.06020826    -0.10500
C501        C  0.52892795  0.51946698  0.05206605    -0.00500
C502        C  0.51370820  0.52115319  0.03069224    -0.05600
H503        H  0.50905807  0.46796712  0.01416816     0.06800
H504        H  0.53430163  0.53409758  0.06230866     0.10200
Br505      Br  0.52658859  0.49974952  0.45526718    -0.05300
Br506      Br  0.42381163  0.50801756  0.48948477    -0.02300
Br507      Br  0.53875409  0.45189249  0.05606348     0.00600
Br508      Br  0.50303796  0.54892974  0.52055508    -0.03800
C509        C  0.53965286  0.50148221  0.20114404    -0.11200
C510        C  0.53108752  0.48222866  0.21247750     0.04300
C511        C  0.51639942  0.48322152  0.23455212    -0.11800
C512        C  0.51017760  0.50303753  0.24602783     0.19100
C513        C  0.51941392  0.52216749  0.23572877    -0.08800
C514        C  0.53394961  0.52128240  0.21338979    -0.01800
H515        H  0.50983040  0.46840044  0.24296709     0.05600
C516        C  0.49418848  0.50319661  0.26890371     0.21100
H517        H  0.54050919  0.53618923  0.20525121     0.10800
C518        C  0.50051211  0.50905510  0.29611787    -0.15100
C519        C  0.48592760  0.50861422  0.31840469     0.03800
C520        C  0.46466958  0.50178756  0.31365242    -0.10500
C521        C  0.45844660  0.49572247  0.28644778    -0.00500
C522        C  0.47292145  0.49662699  0.26409377    -0.05600
H523        H  0.51692273  0.51383566  0.30005203     0.06800
H524        H  0.44209161  0.49079501  0.28241001     0.10200
Br525      Br  0.51217250  0.54988740  0.25084910    -0.05300
Br526      Br  0.53951932  0.45393991  0.20020676    -0.02300
Br527      Br  0.49631322  0.51641030  0.35500923     0.00600
Br528      Br  0.46266365  0.48971535  0.22715347    -0.03800
C529        C  0.87022155  0.04997651  0.09548525    -0.11200
C530        C  0.85128727  0.04406597  0.08108257     0.04300
C531        C  0.83797152  0.05999611  0.06987442    -0.11800
C532        C  0.84312380  0.08188464  0.07243145     0.19100
C533        C  0.86175376  0.08788869  0.08709725    -0.08800
C534        C  0.87505017  0.07199525  0.09862622    -0.01800
H535        H  0.82349560  0.05528223  0.05892417     0.05600
C536        C  0.82877761  0.09804199  0.05944949     0.21100
H537        H  0.88953611  0.07687653  0.10940820     0.10800
C538        C  0.81580583  0.11093019  0.07661669    -0.15100
C539        C  0.80086011  0.12513515  0.06487310     0.03800
C540        C  0.79857078  0.12641802  0.03532591    -0.10500
C541        C  0.81220667  0.11409942  0.01824213    -0.00500
C542        C  0.82713718  0.09995033  0.03005715    -0.05600
H543        H  0.81716093  0.10974525  0.09925898     0.06800
H544        H  0.81089025  0.11521536  0.49609664     0.10200
Br545      Br  0.87019757  0.11749621  0.09056754    -0.05300
Br546      Br  0.84207771  0.01468906  0.07669626    -0.02300
Br547      Br  0.78484104  0.14295210  0.09035604     0.00600
Br548      Br  0.84517714  0.08391943  0.50601019    -0.03800
C549        C  0.80136763  0.38058139  0.27149680    -0.11200
C550        C  0.79602212  0.40166018  0.28039746     0.04300
C551        C  0.81169313  0.41488493  0.29232743    -0.11800
C552        C  0.83276154  0.40762347  0.29541269     0.19100
C553        C  0.83841723  0.38707447  0.28544215    -0.08800
C554        C  0.82277887  0.37375149  0.27346261    -0.01800
H555        H  0.80739908  0.43090148  0.29945733     0.05600
C556        C  0.84838307  0.42179107  0.30951235     0.21100
H557        H  0.82723318  0.35770799  0.26664330     0.10800
C558        C  0.85007475  0.42126287  0.33887468    -0.15100
C559        C  0.86326897  0.43587208  0.35318909     0.03800
C560        C  0.87479065  0.45160758  0.33791667    -0.10500
C561        C  0.87329598  0.45168851  0.30840158    -0.00500
C562        C  0.86036545  0.43688765  0.29421552    -0.05600
H563        H  0.84075627  0.40967660  0.35072627     0.06800
H564        H  0.88227081  0.46333096  0.29619726     0.10200
Br565      Br  0.86713205  0.37645717  0.28856429    -0.05300
Br566      Br  0.76791361  0.41375623  0.27607659    -0.02300
Br567      Br  0.86373011  0.43411086  0.39345026     0.00600
Br568      Br  0.85932977  0.43795936  0.25395705    -0.03800
C569        C  0.70119647  0.37555948  0.21722409    -0.11200
C570        C  0.70598489  0.39370860  0.20036059     0.04300
C571        C  0.68950117  0.40706333  0.19096908    -0.11800
C572        C  0.66817419  0.40279927  0.19798227     0.19100
C573        C  0.66325758  0.38477010  0.21466536    -0.08800
C574        C  0.67974204  0.37137981  0.22431151    -0.01800
H575        H  0.69334484  0.42103408  0.17827166     0.05600
C576        C  0.65152040  0.41772801  0.18782219     0.21100
H577        H  0.67574821  0.35755798  0.23718625     0.10800
C578        C  0.63881463  0.41187626  0.16479455    -0.15100
C579        C  0.62456276  0.42661691  0.15264440     0.03800
C580        C  0.62299573  0.44780214  0.16363175    -0.10500
C581        C  0.63535573  0.45319752  0.18738085    -0.00500
C582        C  0.64950111  0.43844850  0.19937762    -0.05600
H583        H  0.64038152  0.39589643  0.15582284     0.06800
H584        H  0.63434247  0.46914470  0.19655782     0.10200
Br585      Br  0.63436527  0.37818195  0.22516731    -0.05300
Br586      Br  0.73463485  0.40212866  0.19058098    -0.02300
Br587      Br  0.60826296  0.41652532  0.12105259     0.00600
Br588      Br  0.66592219  0.44738315  0.23143620    -0.03800
C589        C  0.75347183  0.29152106  0.32033876    -0.11200
C590        C  0.77295654  0.28446396  0.33242425     0.04300
C591        C  0.77272212  0.26947992  0.35437535    -0.11800
C592        C  0.75341298  0.26123100  0.36472808     0.19100
C593        C  0.73396104  0.26869483  0.35338842    -0.08800
C594        C  0.73410947  0.28371026  0.33142527    -0.01800
H595        H  0.78772930  0.26417275  0.36343951     0.05600
C596        C  0.75389963  0.24493347  0.38743765     0.21100
H597        H  0.71900112  0.28888615  0.32254009     0.10800
C598        C  0.74629222  0.25046595  0.41417064    -0.15100
C599        C  0.74592612  0.23532088  0.43591968     0.03800
C600        C  0.75322734  0.21407289  0.43103597    -0.10500
C601        C  0.76163161  0.20881473  0.40454778    -0.00500
C602        C  0.76198104  0.22402385  0.38281317    -0.05600
H603        H  0.74060601  0.26669114  0.41811419     0.06800
H604        H  0.76742385  0.19264900  0.40048906     0.10200
Br605      Br  0.70684179  0.25814638  0.36641373    -0.05300
Br606      Br  0.80048302  0.29513747  0.32102288    -0.02300
Br607      Br  0.73640433  0.24509175  0.47214476     0.00600
Br608      Br  0.77279303  0.21524208  0.34685016    -0.03800
C609        C  0.75368494  0.28759364  0.17875215    -0.11200
C610        C  0.74714645  0.26598509  0.18252268     0.04300
C611        C  0.74672204  0.25195051  0.15956499    -0.11800
C612        C  0.75236969  0.25905630  0.13261594     0.19100
C613        C  0.75849137  0.28071968  0.12870475    -0.08800
C614        C  0.75949149  0.29464867  0.15178222    -0.01800
H615        H  0.74188647  0.23534874  0.16272689     0.05600
C616        C  0.75098187  0.24366059  0.10894739     0.21100
H617        H  0.76407454  0.31129832  0.14843985     0.10800
C618        C  0.73109018  0.23447481  0.10231477    -0.15100
C619        C  0.72910008  0.21917005  0.08083693     0.03800
C620        C  0.74733852  0.21302908  0.06516405    -0.10500
C621        C  0.76725151  0.22226247  0.07208881    -0.00500
C622        C  0.76925717  0.23709790  0.09398916    -0.05600
H623        H  0.71700248  0.23918097  0.11409512     0.06800
H624        H  0.78158879  0.21749690  0.06090622     0.10200
Br625      Br  0.76411268  0.29250329  0.09214713    -0.05300
Br626      Br  0.73924149  0.25432462  0.21845177    -0.02300
Br627      Br  0.70101278  0.20765920  0.07432331     0.00600
Br628      Br  0.79753730  0.24660719  0.10386913    -0.03800
C629        C  0.36756945  0.04234059  0.15113187    -0.11200
C630        C  0.35007789  0.03686449  0.16871611     0.04300
C631        C  0.33651655  0.05300587  0.17876218    -0.11800
C632        C  0.33954712  0.07454363  0.17112608     0.19100
C633        C  0.35610028  0.07998299  0.15245256    -0.08800
C634        C  0.37003611  0.06396233  0.14276011    -0.01800
H635        H  0.32345101  0.04873915  0.19266423     0.05600
C636        C  0.32550571  0.09100857  0.18367594     0.21100
H637        H  0.38308562  0.06855002  0.12903287     0.10800
C638        C  0.32906689  0.09734062  0.21156668    -0.15100
C639        C  0.31514366  0.11164754  0.22507520     0.03800
C640        C  0.29728472  0.11992929  0.21041234    -0.10500
C641        C  0.29389946  0.11353529  0.18237989    -0.00500
C642        C  0.30775126  0.09914568  0.16905624    -0.05600
H643        H  0.34250809  0.09071260  0.22307075     0.06800
H644        H  0.28029185  0.11964386  0.17073149     0.10200
Br645      Br  0.36042676  0.10909092  0.14011272    -0.05300
Br646      Br  0.34294284  0.00783520  0.17930608    -0.02300
Br647      Br  0.32059977  0.11771233  0.26398977     0.00600
Br648      Br  0.30132049  0.09035797  0.13132797    -0.03800
C649        C  0.62232185  0.94338678  0.34204432    -0.11200
C650        C  0.62403687  0.94105441  0.31257713     0.04300
C651        C  0.63868555  0.92640370  0.30119560    -0.11800
C652        C  0.65161572  0.91374339  0.31866455     0.19100
C653        C  0.64912761  0.91518862  0.34801477    -0.08800
C654        C  0.63450370  0.92987028  0.35948670    -0.01800
H655        H  0.64025655  0.92511987  0.27858339     0.05600
C656        C  0.66850283  0.90018850  0.30590694     0.21100
H657        H  0.63318079  0.93121669  0.38211741     0.10800
C658        C  0.68976261  0.90733940  0.30691157    -0.15100
C659        C  0.70627141  0.89521690  0.29485615     0.03800
C660        C  0.70161168  0.87530678  0.28166689    -0.10500
C661        C  0.68017252  0.86850972  0.28007173    -0.00500
C662        C  0.66369825  0.88076741  0.29200512    -0.05600
H663        H  0.69349334  0.92256307  0.31695893     0.06800
H664        H  0.67622005  0.85332902  0.27008048     0.10200
Br665      Br  0.66549027  0.89751977  0.37313334    -0.05300
Br666      Br  0.60625672  0.95674998  0.28676518    -0.02300
Br667      Br  0.73450337  0.90747620  0.29588766     0.00600
Br668      Br  0.63498373  0.87003942  0.28959287    -0.03800
C669        C  0.62729308  0.04355105  0.40720994    -0.11200
C670        C  0.62753259  0.06529905  0.39805538     0.04300
C671        C  0.64220660  0.07988912  0.40973789    -0.11800
C672        C  0.65673086  0.07338763  0.43052131     0.19100
C673        C  0.65657928  0.05186337  0.43966094    -0.08800
C674        C  0.64203088  0.03722719  0.42805912    -0.01800
H675        H  0.64224314  0.09648817  0.40265554     0.05600
C676        C  0.67192702  0.08928146  0.44242513     0.21100
H677        H  0.64233629  0.02073032  0.43549469     0.10800
C678        C  0.66835946  0.09764900  0.46938693    -0.15100
C679        C  0.68243873  0.11272118  0.48130074     0.03800
C680        C  0.70057544  0.11978523  0.46597966    -0.10500
C681        C  0.70402205  0.11116976  0.43894623    -0.00500
C682        C  0.68994983  0.09610686  0.42720626    -0.05600
H683        H  0.65456088  0.09231698  0.48128810     0.06800
H684        H  0.71778753  0.11614199  0.42673125     0.10200
Br685      Br  0.67628592  0.04159590  0.46752575    -0.05300
Br686      Br  0.60832326  0.07658791  0.37020656    -0.02300
Br687      Br  0.67635105  0.12208438  0.01909026     0.00600
Br688      Br  0.69630116  0.08476539  0.39062316    -0.03800
C689        C  0.53736242  0.99301646  0.44682898    -0.11200
C690        C  0.51610132  0.00006657  0.44279617     0.04300
C691        C  0.50179299  0.00004881  0.46535424    -0.11800
C692        C  0.50843322  0.99386309  0.49232253     0.19100
C693        C  0.52970314  0.98692283  0.49637494    -0.08800
C694        C  0.54385082  0.98623341  0.47361337    -0.01800
H695        H  0.48538865  0.00504609  0.46188842     0.05600
C696        C  0.49295338  0.99429336  0.01554728     0.21100
H697        H  0.56020410  0.98105815  0.47705833     0.10800
C698        C  0.48758585  0.97507777  0.02928678    -0.15100
C699        C  0.47289900  0.97488082  0.05144142     0.03800
C700        C  0.46295138  0.99432839  0.06008739    -0.10500
C701        C  0.46815564  0.01350784  0.04592094    -0.00500
C702        C  0.48302753  0.01363803  0.02394704    -0.05600
H703        H  0.49484787  0.96021134  0.52284630     0.06800
H704        H  0.46081807  0.02858734  0.05215446     0.10200
Br705      Br  0.54066685  0.97919576  0.03256062    -0.05300
Br706      Br  0.50539124  0.00921871  0.40687350    -0.02300
Br707      Br  0.46688390  0.94719915  0.06779974     0.00600
Br708      Br  0.48979209  0.04080331  0.00679638    -0.03800
C709        C  0.53490097  0.99530327  0.31029238    -0.11200
C710        C  0.51679939  0.98149156  0.31039731     0.04300
C711        C  0.50252994  0.98173150  0.28775457    -0.11800
C712        C  0.50567558  0.99557711  0.26492537     0.19100
C713        C  0.52338315  0.00955743  0.26487518    -0.08800
C714        C  0.53780276  0.00932064  0.28737268    -0.01800
H715        H  0.48871757  0.97115960  0.28804413     0.05600
C716        C  0.48994417  0.99545049  0.24174397     0.21100
H717        H  0.55149877  0.02001717  0.28671809     0.10800
C718        C  0.47508266  0.01228603  0.23969796    -0.15100
C719        C  0.45950467  0.01231357  0.21855131     0.03800
C720        C  0.45848731  0.99505925  0.19918566    -0.10500
C721        C  0.47324950  0.97809843  0.20156021    -0.00500
C722        C  0.48903236  0.97830861  0.22241374    -0.05600
H723        H  0.47554185  0.02539156  0.25474882     0.06800
H724        H  0.47292015  0.96492840  0.18660328     0.10200
Br725      Br  0.52879040  0.02881963  0.23418606    -0.05300
Br726      Br  0.50972090  0.96246192  0.34088650    -0.02300
Br727      Br  0.43948888  0.03578056  0.21818382     0.00600
Br728      Br  0.50963307  0.95539675  0.22294814    -0.03800
C729        C  0.12764607  0.95277272  0.40735669    -0.11200
C730        C  0.14604959  0.95890680  0.42278825     0.04300
C731        C  0.15931554  0.94311948  0.43450662    -0.11800
C732        C  0.15471464  0.92118086  0.43115751     0.19100
C733        C  0.13663302  0.91496148  0.41555907    -0.08800
C734        C  0.12332120  0.93068945  0.40370384    -0.01800
H735        H  0.17345035  0.94796692  0.44609230     0.05600
C736        C  0.16951804  0.90507800  0.44320090     0.21100
H737        H  0.10933358  0.92561136  0.39199382     0.10800
C738        C  0.16542679  0.89634557  0.46982085    -0.15100
C739        C  0.17966627  0.88165025  0.48217135     0.03800
C740        C  0.19860983  0.87567360  0.46779872    -0.10500
C741        C  0.20237331  0.88440847  0.44092308    -0.00500
C742        C  0.18803128  0.89886255  0.42862805    -0.05600
H743        H  0.15113836  0.90111715  0.48111368     0.06800
H744        H  0.21655740  0.87994593  0.42921059     0.10200
Br745      Br  0.12969279  0.88516070  0.40990089    -0.05300
Br746      Br  0.15480314  0.98839096  0.42748257    -0.02300
Br747      Br  0.17231922  0.87102670  0.51880760     0.00600
Br748      Br  0.19422685  0.90963024  0.39172045    -0.03800
C749        C  0.29852989  0.87165668  0.03167401    -0.11200
C750        C  0.30916154  0.86638645  0.05686547     0.04300
C751        C  0.32407560  0.88071779  0.06840003    -0.11800
C752        C  0.32823042  0.90069616  0.05565728     0.19100
C753        C  0.31770415  0.90585487  0.03026188    -0.08800
C754        C  0.30318334  0.89125359  0.01835397    -0.01800
H755        H  0.33236943  0.87632197  0.08755030     0.05600
C756        C  0.34375874  0.91574380  0.06893192     0.21100
H757        H  0.29488283  0.89558055  0.99917883     0.10800
C758        C  0.36204734  0.92201997  0.05390233    -0.15100
C759        C  0.37668304  0.93670387  0.06527852     0.03800
C760        C  0.37352483  0.94491413  0.09262538    -0.10500
C761        C  0.35566173  0.93807140  0.10808290    -0.00500
C762        C  0.34069575  0.92383019  0.09638216    -0.05600
H763        H  0.36485271  0.91558905  0.03305834     0.06800
H764        H  0.35290605  0.94445540  0.12896403     0.10200
Br765      Br  0.32151784  0.93313671  0.01189618    -0.05300
Br766      Br  0.30435080  0.83951828  0.07584127    -0.02300
Br767      Br  0.40104686  0.94436425  0.04281541     0.00600
Br768      Br  0.31572033  0.91707753  0.11814532    -0.03800
C769        C  0.12637694  0.54429493  0.15760141    -0.11200
C770        C  0.13334194  0.54313051  0.18588122     0.04300
C771        C  0.14746199  0.55858912  0.19645333    -0.11800
C772        C  0.15444777  0.57578975  0.17979297     0.19100
C773        C  0.14689953  0.57756352  0.15198082    -0.08800
C774        C  0.13302719  0.56186825  0.14109716    -0.01800
H775        H  0.15307292  0.55717158  0.21791874     0.05600
C776        C  0.17036946  0.59100645  0.19158218     0.21100
H777        H  0.12761710  0.56330852  0.11955583     0.10800
C778        C  0.19087138  0.59178080  0.17974586    -0.15100
C779        C  0.20679179  0.60507927  0.19098986     0.03800
C780        C  0.20231021  0.61797325  0.21489108    -0.10500
C781        C  0.18179296  0.61686230  0.22692559    -0.00500
C782        C  0.16589684  0.60363870  0.21546162    -0.05600
H783        H  0.19458406  0.58173398  0.16176374     0.06800
H784        H  0.17789932  0.62662602  0.24509220     0.10200
Br785      Br  0.15463311  0.60142526  0.12840727    -0.05300
Br786      Br  0.12343172  0.52174379  0.21202497    -0.02300
Br787      Br  0.23424520  0.60397656  0.17280212     0.00600
Br788      Br  0.13809344  0.60408040  0.23255202    -0.03800
C789        C  0.29803781  0.61814294  0.27568684    -0.11200
C790        C  0.29313881  0.59666966  0.28325969     0.04300
C791        C  0.30903691  0.58350252  0.29480497    -0.11800
C792        C  0.32984676  0.59131958  0.29883059     0.19100
C793        C  0.33505366  0.61226630  0.28989726    -0.08800
C794        C  0.31919746  0.62550290  0.27842557    -0.01800
H795        H  0.30511441  0.56715508  0.30094651     0.05600
C796        C  0.34584170  0.57737100  0.31254517     0.21100
H797        H  0.32331327  0.64181547  0.27236262     0.10800
C798        C  0.35565814  0.56106472  0.29690604    -0.15100
C799        C  0.37038095  0.54706966  0.30939112     0.03800
C800        C  0.37521259  0.54906840  0.33840422    -0.10500
C801        C  0.36564797  0.56583620  0.35380767    -0.00500
C802        C  0.35104327  0.57989157  0.34111407    -0.05600
H803        H  0.35188258  0.55928354  0.27480269     0.06800
H804        H  0.36912637  0.56773715  0.37596733     0.10200
Br805      Br  0.36357631  0.62340368  0.29316111    -0.05300
Br806      Br  0.26543551  0.58404137  0.27718413    -0.02300
Br807      Br  0.38375228  0.52636071  0.28497526     0.00600
Br808      Br  0.33802853  0.60189965  0.36370353    -0.03800
C809        C  0.24366526  0.70857588  0.31875395    -0.11200
C810        C  0.22557796  0.72170919  0.32383338     0.04300
C811        C  0.22583434  0.73646339  0.34614556    -0.11800
C812        C  0.24389743  0.73850170  0.36340802     0.19100
C813        C  0.26181775  0.72535267  0.35853282    -0.08800
C814        C  0.26165028  0.71069353  0.33628220    -0.01800
H815        H  0.21204320  0.74668513  0.34974678     0.05600
C816        C  0.24400833  0.75458620  0.38624114     0.21100
H817        H  0.27564709  0.70073468  0.33283991     0.10800
C818        C  0.23302512  0.75014983  0.41120390    -0.15100
C819        C  0.23361538  0.76464009  0.43373313     0.03800
C820        C  0.24562983  0.78392404  0.43146817    -0.10500
C821        C  0.25653138  0.78828369  0.40631535    -0.00500
C822        C  0.25552417  0.77396359  0.38367294    -0.05600
H823        H  0.22416595  0.73521218  0.41326461     0.06800
H824        H  0.26547259  0.80314247  0.40399246     0.10200
Br825      Br  0.28674015  0.72662977  0.38205784    -0.05300
Br826      Br  0.20073379  0.72148956  0.30010532    -0.02300
Br827      Br  0.21847395  0.75649210  0.46723075     0.00600
Br828      Br  0.26949172  0.78178880  0.34927371    -0.03800
C829        C  0.25036974  0.70774729  0.17843976    -0.11200
C830        C  0.26913807  0.71696544  0.16699155     0.04300
C831        C  0.26752874  0.73169517  0.14482098    -0.11800
C832        C  0.24754809  0.73745050  0.13372317     0.19100
C833        C  0.22891928  0.72783399  0.14450399    -0.08800
C834        C  0.23042842  0.71331984  0.16679196    -0.01800
H835        H  0.28194357  0.73894074  0.13638729     0.05600
C836        C  0.24656372  0.75328207  0.11063093     0.21100
H837        H  0.21584683  0.70618035  0.17485582     0.10800
C838        C  0.25456962  0.74750714  0.08422208    -0.15100
C839        C  0.25433206  0.76212735  0.06189108     0.03800
C840        C  0.24586507  0.78307820  0.06587203    -0.10500
C841        C  0.23771943  0.78872481  0.09238459    -0.00500
C842        C  0.23823133  0.77412203  0.11475092    -0.05600
H843        H  0.26099539  0.73147350  0.08096790     0.06800
H844        H  0.23145803  0.80477390  0.09597650     0.10200
Br845      Br  0.20113548  0.73342641  0.12891021    -0.05300
Br846      Br  0.29731874  0.71110176  0.18115793    -0.02300
Br847      Br  0.26511350  0.75193805  0.02647610     0.00600
Br848      Br  0.22839653  0.78369880  0.15086565    -0.03800
O849        O  0.26687374  0.68192758  0.70935791    -0.57100
C850        C  0.28145926  0.63350162  0.76601146     0.75600
O851        O  0.22859678  0.68326147  0.78542056    -0.58200
C852        C  0.25053636  0.69278658  0.70241147     0.75500
C853        C  0.21822528  0.63307273  0.72696509     0.77900
Cd854      Cd  0.24887157  0.66329639  0.74870779     1.37500
O855        O  0.28555092  0.64854881  0.74880494    -0.57100
O856        O  0.23510885  0.63820974  0.71400841    -0.55900
C857        C  0.24484315  0.69297670  0.79510018     0.77900
O858        O  0.21540510  0.64202572  0.75068360    -0.58200
O859        O  0.26249191  0.63254560  0.77520173    -0.56700
O860        O  0.23389160  0.68984979  0.71701121    -0.56700
O861        O  0.26257663  0.68848517  0.78375651    -0.55900
O862        O  0.26288288  0.81189722  0.95818489    -0.57100
C863        C  0.28135618  0.85789222  0.52004505     0.75600
O864        O  0.21183434  0.84886515  0.00105141    -0.58200
C865        C  0.24668754  0.79984154  0.95441899     0.75500
C866        C  0.24585488  0.79968752  0.54329232     0.77900
Cd867      Cd  0.24738909  0.83080077  0.99921791     1.37500
O868        O  0.28136767  0.85146553  0.49474128    -0.57100
O869        O  0.25975923  0.79933779  0.52399092    -0.55900
C870        C  0.21511624  0.86060114  0.97967651     0.77900
O871        O  0.23234444  0.81499401  0.54250496    -0.58200
O872        O  0.26576915  0.85203360  0.53512274    -0.56700
O873        O  0.23113321  0.80253393  0.97101399    -0.56700
O874        O  0.23327547  0.85866534  0.96824874    -0.55900
O875        O  0.56689619  0.97823473  0.92035318    -0.57100
C876        C  0.60904269  0.96042430  0.85473567     0.75600
O877        O  0.56500324  0.01031001  0.83575471    -0.58200
C878        C  0.55319439  0.99312996  0.92354852     0.75500
C879        C  0.61217895  0.02709292  0.89635451     0.77900
Cd880      Cd  0.58257666  0.99421533  0.87741373     1.37500
O881        O  0.59957522  0.95792491  0.87808920    -0.57100
O882        O  0.61154195  0.00833289  0.90673877    -0.55900
C883        C  0.55128236  0.99532982  0.83308250     0.77900
O884        O  0.59918135  0.03066054  0.87645284    -0.58200
O885        O  0.60670097  0.97851111  0.84290072    -0.56700
O886        O  0.55370881  0.00842114  0.90602882    -0.56700
O887        O  0.55240983  0.98018785  0.85076774    -0.55900
O888        O  0.43443574  0.97744822  0.66717400    -0.57100
C889        C  0.38787646  0.96123579  0.60495635     0.75600
O890        O  0.39692760  0.02985880  0.62347785    -0.58200
C891        C  0.44319433  0.99473642  0.67563928     0.75500
C892        C  0.44693230  0.99509157  0.58349165     0.77900
Cd893      Cd  0.41529313  0.99450272  0.62735699     1.37500
O894        O  0.39427253  0.96046487  0.63025044    -0.57100
O895        O  0.44532073  0.97997219  0.60114389    -0.55900
C896        C  0.38354837  0.02591091  0.64288911     0.77900
O897        O  0.43417362  0.01084415  0.58674152    -0.58200
O898        O  0.39406300  0.97718222  0.59057756    -0.56700
O899        O  0.43874404  0.01169438  0.66211536    -0.56700
O900        O  0.38518430  0.00770147  0.65455722    -0.55900
O901        O  0.73651756  0.31777807  0.79020336    -0.57100
C902        C  0.71812111  0.36086867  0.72749674     0.75600
O903        O  0.78899881  0.34951881  0.74567379    -0.58200
C904        C  0.75273724  0.30628429  0.79589707     0.75500
C905        C  0.75370907  0.30319213  0.70217861     0.77900
Cd906      Cd  0.75236474  0.33390638  0.74717120     1.37500
O907        O  0.71622516  0.35033462  0.75019752    -0.57100
O908        O  0.74008837  0.30219939  0.72175133    -0.55900
C909        C  0.78480205  0.36497035  0.76221403     0.77900
O910        O  0.76701332  0.31860083  0.70331872    -0.58200
O911        O  0.73538054  0.35828101  0.71410946    -0.56700
O912        O  0.76831604  0.30773428  0.77908337    -0.56700
O913        O  0.76583322  0.36590169  0.77132438    -0.55900
O914        O  0.76544368  0.18226172  0.95515747    -0.57100
C915        C  0.78146741  0.13970482  0.52220129     0.75600
O916        O  0.73089065  0.18445190  0.53751461    -0.58200
C917        C  0.75164531  0.19717437  0.95289678     0.75500
C918        C  0.71655997  0.13556799  0.97733928     0.77900
Cd919      Cd  0.74852285  0.16595379  0.99733556     1.37500
O920        O  0.78389976  0.14790627  0.49799013    -0.57100
O921        O  0.73445420  0.13825607  0.96542852    -0.55900
C922        C  0.74656380  0.19704921  0.54194201     0.77900
O923        O  0.71320092  0.14719901  0.99879068    -0.58200
O924        O  0.76368252  0.14311899  0.53400092    -0.56700
O925        O  0.73635138  0.19684363  0.97027431    -0.56700
O926        O  0.76236484  0.19512214  0.52551335    -0.55900
O927        O  0.40296227  0.46541288  0.87872636    -0.57100
C928        C  0.44886333  0.50189692  0.83615688     0.75600
O929        O  0.39861769  0.53827999  0.87650084    -0.58200
C930        C  0.38869187  0.46872044  0.89712119     0.75500
C931        C  0.44482165  0.50483772  0.92717323     0.77900
Cd932      Cd  0.41705737  0.50266842  0.87938189     1.37500
O933        O  0.43491322  0.48708155  0.83802094    -0.57100
O934        O  0.44683703  0.49093349  0.90793969    -0.55900
C935        C  0.38973560  0.53406608  0.85311469     0.77900
O936        O  0.42956108  0.51821450  0.92468895    -0.58200
O937        O  0.44800789  0.51681301  0.85428007    -0.56700
O938        O  0.38752873  0.48772418  0.90664549    -0.56700
O939        O  0.39329614  0.51558106  0.84308064    -0.55900
O940        O  0.56718194  0.51663131  0.67113409    -0.57100
C941        C  0.61382417  0.52973897  0.60936620     0.75600
O942        O  0.59795259  0.46194466  0.62898135    -0.58200
C943        C  0.55427414  0.50132595  0.67623736     0.75500
C944        C  0.55298474  0.49853455  0.58319577     0.77900
Cd945      Cd  0.58286032  0.49891187  0.62921796     1.37500
O946        O  0.60099892  0.53436593  0.62909442    -0.57100
O947        O  0.55565801  0.51474821  0.59894951    -0.55900
C948        C  0.60923124  0.46470011  0.65083628     0.77900
O949        O  0.56456724  0.48226997  0.58850721    -0.58200
O950        O  0.61252096  0.51081918  0.59954706    -0.56700
O951        O  0.55429391  0.48583646  0.65900416    -0.56700
O952        O  0.60835586  0.48325645  0.66182178    -0.55900
O953        O  0.76803437  0.68358105  0.53983511    -0.57100
C954        C  0.78311585  0.64003702  0.97458917     0.75600
O955        O  0.71393740  0.64630880  0.50430036    -0.58200
C956        C  0.75104458  0.69121420  0.55059469     0.75500
C957        C  0.74103161  0.69702559  0.95895590     0.77900
Cd958      Cd  0.74917565  0.66465348  0.50089519     1.37500
O959        O  0.78603488  0.64949622  0.99792436    -0.57100
O960        O  0.75461263  0.69945100  0.97837319    -0.55900
C961        C  0.71999058  0.63273903  0.52258621     0.77900
O962        O  0.73052183  0.67953673  0.95900493    -0.58200
O963        O  0.76469555  0.64198228  0.96394952    -0.56700
O964        O  0.73376098  0.68646373  0.53826149    -0.56700
O965        O  0.73955265  0.63341655  0.52924036    -0.55900
O966        O  0.73677683  0.81363806  0.71040375    -0.57100
C967        C  0.71886791  0.86088422  0.77085293     0.75600
O968        O  0.76783274  0.81355249  0.79448167    -0.58200
C969        C  0.75089989  0.79895420  0.70937777     0.75500
C970        C  0.78410271  0.85998089  0.73113187     0.77900
Cd971      Cd  0.75171196  0.83133255  0.75274399     1.37500
O972        O  0.71528656  0.84710782  0.75169161    -0.57100
O973        O  0.76645185  0.85663261  0.71892492    -0.55900
C974        C  0.75096844  0.80306357  0.80038658     0.77900
O975        O  0.78695688  0.85007395  0.75418001    -0.58200
O976        O  0.73760223  0.86109921  0.78091071    -0.56700
O977        O  0.76528236  0.79963582  0.72804140    -0.56700
O978        O  0.73501739  0.80610133  0.78452847    -0.55900
O979        O  0.89786775  0.03774947  0.62729345    -0.57100
C980        C  0.94599908  0.00198721  0.67066811     0.75600
O981        O  0.89736027  0.96537506  0.62677894    -0.58200
C982        C  0.88540705  0.03392520  0.60681199     0.75500
C983        C  0.94496614  0.00280487  0.58020139     0.77900
Cd984      Cd  0.91499389  0.00159812  0.62616173     1.37500
O985        O  0.93205725  0.01681409  0.66878898    -0.57100
O986        O  0.94308903  0.01768224  0.59815590    -0.55900
C987        C  0.88660813  0.96914181  0.64891925     0.77900
O988        O  0.93226311  0.98690918  0.58290653    -0.58200
O989        O  0.94522470  0.98725732  0.65230632    -0.56700
O990        O  0.88694753  0.01547100  0.59570388    -0.56700
O991        O  0.88914149  0.98757872  0.65967515    -0.55900
O992        O  0.10040815  0.96466829  0.87540480    -0.57100
C993        C  0.05350031  0.99789889  0.82839387     0.75600
O994        O  0.06448087  0.01923357  0.91541019    -0.58200
C995        C  0.11269249  0.96887116  0.89592352     0.75500
C996        C  0.11160507  0.03328692  0.85490658     0.77900
Cd997      Cd  0.08250825  0.00056983  0.87554817     1.37500
O998        O  0.06308089  0.98118449  0.83715757    -0.57100
O999        O  0.10988542  0.01477201  0.84390439    -0.55900
C1000       C  0.05352187  0.00295890  0.92267887     0.77900
O1001       O  0.09985844  0.03673994  0.87615028    -0.58200
O1002       O  0.05712967  0.01519287  0.84160624    -0.56700
O1003       O  0.11090438  0.98747567  0.90649076    -0.56700
O1004       O  0.05566919  0.98628918  0.90771080    -0.55900
O1005       O  0.26826136  0.18263671  0.78588521    -0.57100
C1006       C  0.28134175  0.13460575  0.72401242     0.75600
O1007       O  0.21441006  0.14844703  0.74949210    -0.58200
C1008       C  0.25387175  0.19695093  0.78835548     0.75500
C1009       C  0.24968879  0.19125475  0.69660102     0.77900
Cd1010     Cd  0.25061787  0.16449926  0.74557104     1.37500
O1011       O  0.28606179  0.14698160  0.74434769    -0.57100
O1012       O  0.26643195  0.18820376  0.71096041    -0.55900
C1013       C  0.21931637  0.13562970  0.76925413     0.77900
O1014       O  0.23277546  0.18189331  0.70498019    -0.58200
O1015       O  0.26247038  0.13601539  0.71450081    -0.56700
O1016       O  0.23843423  0.19584126  0.77129876    -0.56700
O1017       O  0.23846304  0.13645175  0.77774157    -0.55900
O1018       O  0.23466516  0.31365994  0.95558049    -0.57100
C1019       C  0.21896596  0.35769049  0.51792194     0.75600
O1020       O  0.26867211  0.31298207  0.53718224    -0.58200
C1021       C  0.25116194  0.30339220  0.94773888     0.75500
C1022       C  0.28492440  0.36057557  0.97658495     0.77900
Cd1023     Cd  0.25256711  0.33117670  0.99566339     1.37500
O1024       O  0.21666706  0.34776166  0.49486028    -0.57100
O1025       O  0.26640675  0.35976969  0.96585803    -0.55900
C1026       C  0.25449670  0.29837486  0.53863863     0.77900
O1027       O  0.28845118  0.34795641  0.99701210    -0.58200
O1028       O  0.23688129  0.35537557  0.52994244    -0.56700
O1029       O  0.26808456  0.30642234  0.96179369    -0.56700
O1030       O  0.23982112  0.29899080  0.52042329    -0.55900
O1031       O  0.93907973  0.51763449  0.83638447    -0.57100
C1032       C  0.88748741  0.53353500  0.89148567     0.75600
O1033       O  0.89734286  0.46550718  0.87496727    -0.58200
C1034       C  0.94747970  0.50007770  0.82828282     0.75500
C1035       C  0.94546829  0.49776382  0.92094009     0.77900
Cd1036     Cd  0.91691247  0.50027487  0.87361204     1.37500
O1037       O  0.90030796  0.53652729  0.87121374    -0.57100
O1038       O  0.94281597  0.51478769  0.90683518    -0.55900
C1039       C  0.88841628  0.46819513  0.85127033     0.77900
O1040       O  0.93479363  0.48141137  0.91320278    -0.58200
O1041       O  0.88782552  0.51496575  0.90250142    -0.56700
O1042       O  0.94193617  0.48322884  0.84126727    -0.56700
O1043       O  0.89213412  0.48590801  0.83898554    -0.55900
O1044       O  0.10086254  0.45755144  0.62610436    -0.57100
C1045       C  0.05482372  0.49343191  0.67062396     0.75600
O1046       O  0.10068384  0.53077410  0.62398553    -0.58200
C1047       C  0.11279907  0.46038092  0.60491123     0.75500
C1048       C  0.05430262  0.49478513  0.57790800     0.77900
Cd1049     Cd  0.08437245  0.49399691  0.62411663     1.37500
O1050       O  0.06695462  0.47739807  0.66604648    -0.57100
O1051       O  0.05455014  0.48033877  0.59657399    -0.55900
C1052       C  0.11251404  0.52722964  0.64516758     0.77900
O1053       O  0.06842395  0.50939503  0.58031921    -0.58200
O1054       O  0.05685524  0.50921344  0.65406721    -0.56700
O1055       O  0.11159964  0.47872218  0.59338693    -0.56700
O1056       O  0.11184796  0.50836214  0.65511017    -0.55900
C1057       C  0.96077995  0.49697864  0.94457220    -0.11200
C1058       C  0.96447804  0.51503073  0.96203547     0.04300
C1059       C  0.98024906  0.51409670  0.98285501    -0.11800
C1060       C  0.99263425  0.49548076  0.98660819     0.19100
C1061       C  0.98868423  0.47732352  0.96956883    -0.08800
C1062       C  0.97278540  0.47814907  0.94888124    -0.01800
H1063       H  0.98301241  0.52791108  0.49634859     0.05600
C1064       C  0.00896268  0.49493520  0.50932403     0.21100
H1065       H  0.97024545  0.46421930  0.93554671     0.10800
C1066       C  0.00569123  0.48140332  0.53243164    -0.15100
C1067       C  0.02017887  0.48091362  0.55480877     0.03800
C1068       C  0.03845388  0.49450595  0.55454171    -0.10500
C1069       C  0.04164214  0.50808200  0.53121646    -0.00500
C1070       C  0.02716517  0.50830573  0.50871887    -0.05600
H1071       H  0.99159619  0.47123053  0.53314881     0.06800
H1072       H  0.05557227  0.51845403  0.53028272     0.10200
Br1073     Br  0.00524092  0.45140882  0.97283990    -0.05300
Br1074     Br  0.94784012  0.54100549  0.95958076    -0.02300
Br1075     Br  0.01322051  0.46157340  0.58500819     0.00600
Br1076     Br  0.03301089  0.52689905  0.97724899    -0.03800
C1077       C  0.96321414  0.49905967  0.80520226    -0.11200
C1078       C  0.96219494  0.48273855  0.78455057     0.04300
C1079       C  0.97808958  0.48138893  0.76392240    -0.11800
C1080       C  0.99510058  0.49609771  0.76346524     0.19100
C1081       C  0.99603738  0.51252096  0.78383947    -0.08800
C1082       C  0.98010697  0.51396406  0.80445661    -0.01800
H1083       H  0.97698808  0.46905307  0.74785986     0.05600
C1084       C  0.01066478  0.49516423  0.74014722     0.21100
H1085       H  0.98113977  0.52649993  0.82025693     0.10800
C1086       C  0.00691413  0.50781193  0.71635467    -0.15100
C1087       C  0.02094268  0.50740729  0.69351578     0.03800
C1088       C  0.03923542  0.49392989  0.69414665    -0.10500
C1089       C  0.04281327  0.48105525  0.71804221    -0.00500
C1090       C  0.02877127  0.48171883  0.74101760    -0.05600
H1091       H  0.99287839  0.51805380  0.71554070     0.06800
H1092       H  0.05677810  0.47074403  0.71910571     0.10200
Br1093     Br  0.01890077  0.53314163  0.78427000    -0.05300
Br1094     Br  0.93866706  0.46286551  0.78229671    -0.02300
Br1095     Br  0.01336887  0.52510913  0.66191228     0.00600
Br1096     Br  0.03509649  0.46451530  0.77344222    -0.03800
C1097       C  0.12746524  0.44356518  0.59362823    -0.11200
C1098       C  0.12855748  0.42222244  0.60421480     0.04300
C1099       C  0.14266913  0.40733226  0.59198993    -0.11800
C1100       C  0.15588713  0.41327441  0.56948490     0.19100
C1101       C  0.15496092  0.43442624  0.55910287    -0.08800
C1102       C  0.14085317  0.44924721  0.57101789    -0.01800
H1103       H  0.14343618  0.39104952  0.60015685     0.05600
C1104       C  0.17105124  0.39756835  0.55732269     0.21100
H1105       H  0.14056067  0.46544486  0.56254593     0.10800
C1106       C  0.16742929  0.38955072  0.53018924    -0.15100
C1107       C  0.18259880  0.37650440  0.51676587     0.03800
C1108       C  0.20186332  0.37110108  0.53080238    -0.10500
C1109       C  0.20506813  0.37883925  0.55832189    -0.00500
C1110       C  0.18994872  0.39196953  0.57150736    -0.05600
H1111       H  0.15294389  0.39399992  0.51909558     0.06800
H1112       H  0.21958665  0.37493251  0.56966267     0.10200
Br1113     Br  0.17334141  0.44409190  0.52934139    -0.05300
Br1114     Br  0.11153631  0.41204745  0.63508154    -0.02300
Br1115     Br  0.17630278  0.36834628  0.97896379     0.00600
Br1116     Br  0.19637675  0.40290892  0.60828103    -0.03800
C1117       C  0.24994359  0.20561474  0.67191569    -0.11200
C1118       C  0.26813171  0.20727690  0.65439458     0.04300
C1119       C  0.26854338  0.22253594  0.63284080    -0.11800
C1120       C  0.25110762  0.23623476  0.62834765     0.19100
C1121       C  0.23274044  0.23426962  0.64520865    -0.08800
C1122       C  0.23221557  0.21894074  0.66674557    -0.01800
H1123       H  0.28254194  0.22375142  0.61949355     0.05600
C1124       C  0.25229368  0.25217355  0.60552796     0.21100
H1125       H  0.21818539  0.21791462  0.68004937     0.10800
C1126       C  0.24418404  0.24670675  0.57907773    -0.15100
C1127       C  0.24523138  0.26128274  0.55676731     0.03800
C1128       C  0.25455302  0.28183003  0.56089829    -0.10500
C1129       C  0.26312649  0.28702217  0.58733723    -0.00500
C1130       C  0.26197681  0.27239054  0.60961711    -0.05600
H1131       H  0.23708482  0.23096493  0.57577867     0.06800
H1132       H  0.27025574  0.30270966  0.59091099     0.10200
Br1133     Br  0.20838557  0.25264922  0.64002446    -0.05300
Br1134     Br  0.29250118  0.18859162  0.65787043    -0.02300
Br1135     Br  0.23456943  0.25159334  0.52103153     0.00600
Br1136     Br  0.27335068  0.28077935  0.64542785    -0.03800
C1137       C  0.25110521  0.28865143  0.92340806    -0.11200
C1138       C  0.23315527  0.27593783  0.91630038     0.04300
C1139       C  0.23446115  0.26143134  0.89384081    -0.11800
C1140       C  0.25340610  0.25932978  0.87831234     0.19100
C1141       C  0.27112055  0.27233716  0.88493125    -0.08800
C1142       C  0.26993936  0.28667976  0.90749051    -0.01800
H1143       H  0.22075469  0.25146109  0.88873529     0.05600
C1144       C  0.25429603  0.24358847  0.85513255     0.21100
H1145       H  0.28379348  0.29646999  0.91248902     0.10800
C1146       C  0.24335217  0.24810884  0.83018530    -0.15100
C1147       C  0.24346180  0.23347340  0.80786031     0.03800
C1148       C  0.25461354  0.21370109  0.81047521    -0.10500
C1149       C  0.26588521  0.20943816  0.83541188    -0.00500
C1150       C  0.26566949  0.22411921  0.85771648    -0.05600
H1151       H  0.23474101  0.26318274  0.82805541     0.06800
H1152       H  0.27439517  0.19434937  0.83792496     0.10200
Br1153     Br  0.29702827  0.27139610  0.86332787    -0.05300
Br1154     Br  0.20702899  0.27644602  0.93752112    -0.02300
Br1155     Br  0.22874355  0.24211138  0.77422503     0.00600
Br1156     Br  0.28033329  0.21652402  0.89173183    -0.03800
C1157       C  0.12660477  0.04961422  0.84299770    -0.11200
C1158       C  0.12990026  0.07035067  0.85483584     0.04300
C1159       C  0.14465468  0.08455934  0.84253166    -0.11800
C1160       C  0.15608014  0.07872796  0.81835376     0.19100
C1161       C  0.15249985  0.05842468  0.80617651    -0.08800
C1162       C  0.13803482  0.04410972  0.81850810    -0.01800
H1163       H  0.14729645  0.10025334  0.85192042     0.05600
C1164       C  0.17207692  0.09370868  0.80634863     0.21100
H1165       H  0.13569017  0.02855144  0.80863877     0.10800
C1166       C  0.19386479  0.08883265  0.80906663    -0.15100
C1167       C  0.20952885  0.10204129  0.79703509     0.03800
C1168       C  0.20342671  0.12078861  0.78203894    -0.10500
C1169       C  0.18151464  0.12555900  0.77937560    -0.00500
C1170       C  0.16591860  0.11222895  0.79137571    -0.05600
H1171       H  0.19868240  0.07443069  0.82028331     0.06800
H1172       H  0.17643887  0.13977202  0.76796593     0.10200
Br1173     Br  0.16654491  0.04981164  0.77211042    -0.05300
Br1174     Br  0.11503950  0.08067384  0.88748387    -0.02300
Br1175     Br  0.23868663  0.09256715  0.80067187     0.00600
Br1176     Br  0.13638112  0.11946705  0.78591404    -0.03800
C1177       C  0.96118584  0.00399330  0.55739492    -0.11200
C1178       C  0.97926086  0.01779656  0.55895798     0.04300
C1179       C  0.99445490  0.01774017  0.53737652    -0.11800
C1180       C  0.99179196  0.00484190  0.51346519     0.19100
C1181       C  0.97355874  0.99151846  0.51147942    -0.08800
C1182       C  0.95865198  0.99098616  0.53343361    -0.01800
H1183       H  0.00852096  0.02785720  0.53928740     0.05600
C1184       C  0.00862263  0.00484681  0.99136481     0.21100
H1185       H  0.94480520  0.98057680  0.53150002     0.10800
C1186       C  0.01889134  0.98549318  0.98434563    -0.15100
C1187       C  0.03355966  0.98449867  0.96223386     0.03800
C1188       C  0.03879355  0.00339066  0.94707818    -0.10500
C1189       C  0.02935728  0.02300870  0.95510673    -0.00500
C1190       C  0.01427484  0.02384893  0.97686390    -0.05600
H1191       H  0.01507149  0.97109232  0.49600897     0.06800
H1192       H  0.03317956  0.03766444  0.94380076     0.10200
Br1193     Br  0.96788712  0.97451787  0.97842904    -0.05300
Br1194     Br  0.98484739  0.03693944  0.58989911    -0.02300
Br1195     Br  0.04601234  0.95679908  0.95450298     0.00600
Br1196     Br  0.00102163  0.05110783  0.98471955    -0.03800
C1197       C  0.03862638  0.99750728  0.80424445    -0.08000
C1198       C  0.03863241  0.01422746  0.78413682     0.04300
C1199       C  0.02321008  0.01450190  0.76283118    -0.11800
C1200       C  0.00765737  0.99829115  0.76107540     0.19100
C1201       C  0.00804760  0.98117231  0.78049101    -0.08800
C1202       C  0.02350886  0.98084223  0.80185733    -0.01800
H1203       H  0.02334919  0.02741982  0.74751795     0.05600
C1204       C  0.99165173  0.99924738  0.73821341     0.21100
H1205       H  0.02339556  0.96782530  0.81702137     0.10800
C1206       C  0.99763662  0.99278709  0.71113337    -0.15100
C1207       C  0.98309638  0.99373824  0.68880590     0.03800
C1208       C  0.96213721  0.00155023  0.69338664    -0.10500
C1209       C  0.95633078  0.00843667  0.72044432    -0.00500
C1210       C  0.97083439  0.00717143  0.74282481    -0.05600
H1211       H  0.01373644  0.98697854  0.70736717     0.06800
H1212       H  0.94030693  0.01439788  0.72434018     0.10200
Br1213     Br  0.98781785  0.95796648  0.77840763    -0.05300
Br1214     Br  0.06010407  0.03639412  0.78377750    -0.02300
Br1215     Br  0.99324171  0.98518715  0.65235863     0.00600
Br1216     Br  0.96155132  0.01639449  0.77929973    -0.03800
C1217       C  0.80031862  0.87492762  0.71925132    -0.11200
C1218       C  0.80084895  0.88023566  0.69030859     0.04300
C1219       C  0.81608683  0.89481136  0.68022922    -0.11800
C1220       C  0.83096405  0.90447176  0.69829449     0.19100
C1221       C  0.83044019  0.89936535  0.72714190    -0.08800
C1222       C  0.81537698  0.88454710  0.73730428    -0.01800
H1223       H  0.81620429  0.89883511  0.65807514     0.05600
C1224       C  0.84603755  0.92062333  0.68660196     0.21100
H1225       H  0.81519771  0.88085833  0.75954915     0.10800
C1226       C  0.84381344  0.94226851  0.69439379    -0.15100
C1227       C  0.85666637  0.95831126  0.68246122     0.03800
C1228       C  0.87219116  0.95281618  0.66190461    -0.10500
C1229       C  0.87429701  0.93103737  0.65411463    -0.00500
C1230       C  0.86148350  0.91503102  0.66631548    -0.05600
H1231       H  0.83169485  0.94676759  0.70958129     0.06800
H1232       H  0.88616160  0.92633826  0.63870383     0.10200
Br1233     Br  0.84999691  0.91208417  0.75345282    -0.05300
Br1234     Br  0.78179229  0.86797909  0.66290227    -0.02300
Br1235     Br  0.85117595  0.98730675  0.69476529     0.00600
Br1236     Br  0.86610800  0.88564904  0.65524681    -0.03800
C1237       C  0.80000014  0.62679244  0.96095214    -0.11200
C1238       C  0.79997269  0.62240107  0.93172516     0.04300
C1239       C  0.81498590  0.60808226  0.92034275    -0.11800
C1240       C  0.83024575  0.59805234  0.93745756     0.19100
C1241       C  0.83106992  0.60323933  0.96621993    -0.08800
C1242       C  0.81604473  0.61747346  0.97773469    -0.01800
H1243       H  0.81455101  0.60448360  0.89806700     0.05600
C1244       C  0.84463888  0.58161472  0.92517162     0.21100
H1245       H  0.81657447  0.62077966  0.00007546     0.10800
C1246       C  0.86233980  0.58807697  0.90919023    -0.15100
C1247       C  0.87651131  0.57283751  0.89788154     0.03800
C1248       C  0.87280206  0.55054821  0.90213051    -0.10500
C1249       C  0.85487151  0.54424599  0.91802789    -0.00500
C1250       C  0.84089167  0.55950921  0.92945705    -0.05600
H1251       H  0.86539005  0.60509830  0.90601626     0.06800
H1252       H  0.85165486  0.52731244  0.92164768     0.10200
Br1253     Br  0.85234636  0.59100632  0.99051130    -0.05300
Br1254     Br  0.78049946  0.63586918  0.90587621    -0.02300
Br1255     Br  0.90126793  0.58378783  0.87872240     0.00600
Br1256     Br  0.81677843  0.54946246  0.95073456    -0.03800
C1257       C  0.75134005  0.70550054  0.57564517    -0.11200
C1258       C  0.73298468  0.70875501  0.59261760     0.04300
C1259       C  0.73354105  0.72378154  0.61453117    -0.11800
C1260       C  0.75210490  0.73561539  0.62022711     0.19100
C1261       C  0.77061455  0.73191557  0.60414699    -0.08800
C1262       C  0.77014045  0.71696617  0.58208752    -0.01800
H1263       H  0.71936209  0.72630976  0.62722383     0.05600
C1264       C  0.75173531  0.75183811  0.64295927     0.21100
H1265       H  0.78439919  0.71473421  0.56947768     0.10800
C1266       C  0.76030867  0.74662405  0.66927770    -0.15100
C1267       C  0.75993305  0.76153115  0.69137275     0.03800
C1268       C  0.75088970  0.78220948  0.68716904    -0.10500
C1269       C  0.74199514  0.78717652  0.66084334    -0.00500
C1270       C  0.74240266  0.77222197  0.63884313    -0.05600
H1271       H  0.76715913  0.73079420  0.67268771     0.06800
H1272       H  0.73502472  0.80291262  0.65716197     0.10200
Br1273     Br  0.79660257  0.74750535  0.61103291    -0.05300
Br1274     Br  0.70683067  0.69281514  0.58807034    -0.02300
Br1275     Br  0.77088505  0.75203544  0.72701520     0.00600
Br1276     Br  0.73047062  0.78046392  0.60330495    -0.03800
C1277       C  0.73866269  0.71329556  0.93658098    -0.11200
C1278       C  0.74104160  0.73554574  0.94207625     0.04300
C1279       C  0.74218389  0.75014104  0.91975017    -0.11800
C1280       C  0.74093165  0.74293141  0.89192078     0.19100
C1281       C  0.73752810  0.72092160  0.88640649    -0.08800
C1282       C  0.73626395  0.70629444  0.90869828    -0.01800
H1283       H  0.74433915  0.76715688  0.92407572     0.05600
C1284       C  0.74356857  0.75857922  0.86890918     0.21100
H1285       H  0.73444106  0.68927722  0.90413832     0.10800
C1286       C  0.76402475  0.76234936  0.85786180    -0.15100
C1287       C  0.76705702  0.77696654  0.83578646     0.03800
C1288       C  0.74929886  0.78812158  0.82452853    -0.10500
C1289       C  0.72886229  0.78426738  0.83589300    -0.00500
C1290       C  0.72593002  0.76971726  0.85790880    -0.05600
H1291       H  0.77764552  0.75366667  0.86625645     0.06800
H1292       H  0.71500771  0.79263330  0.82762510     0.10200
Br1293     Br  0.73535606  0.71012260  0.84874386    -0.05300
Br1294     Br  0.74221999  0.74699899  0.97954313    -0.02300
Br1295     Br  0.79550157  0.77978544  0.82101492     0.00600
Br1296     Br  0.69755113  0.76535354  0.87216819    -0.03800
C1297       C  0.62962597  0.54530170  0.59806130    -0.11200
C1298       C  0.62621501  0.56783866  0.59837394     0.04300
C1299       C  0.64123667  0.58161435  0.58593516    -0.11800
C1300       C  0.65971255  0.57339400  0.57312861     0.19100
C1301       C  0.66333262  0.55103062  0.57319468    -0.08800
C1302       C  0.64831963  0.53721599  0.58542573    -0.01800
H1303       H  0.63839278  0.59884523  0.58596104     0.05600
C1304       C  0.67507032  0.58838433  0.55986194     0.21100
H1305       H  0.65128259  0.52001170  0.58496719     0.10800
C1306       C  0.69453632  0.59261908  0.57330867    -0.15100
C1307       C  0.70943901  0.60684279  0.56160501     0.03800
C1308       C  0.70495580  0.61714020  0.53566351    -0.10500
C1309       C  0.68531064  0.61284361  0.52233597    -0.00500
C1310       C  0.67045918  0.59860358  0.53419211    -0.05600
H1311       H  0.69804888  0.58494258  0.59323318     0.06800
H1312       H  0.68148420  0.62050181  0.50251149     0.10200
Br1313     Br  0.68822795  0.53859804  0.55604841    -0.05300
Br1314     Br  0.60088749  0.58085852  0.61364357    -0.02300
Br1315     Br  0.73487017  0.61209045  0.58329390     0.00600
Br1316     Br  0.64427793  0.59317831  0.51434394    -0.03800
C1317       C  0.30138268  0.37527881  0.96502156    -0.11200
C1318       C  0.31884821  0.38303163  0.98101599     0.04300
C1319       C  0.33332698  0.39755652  0.96892745    -0.11800
C1320       C  0.33081694  0.40441260  0.94107361     0.19100
C1321       C  0.31381463  0.39635785  0.92491881    -0.08800
C1322       C  0.29924710  0.38201064  0.93692652    -0.01800
H1323       H  0.34640207  0.40384886  0.98144668     0.05600
C1324       C  0.34549436  0.42073969  0.92954053     0.21100
H1325       H  0.28614414  0.37610423  0.92414861     0.10800
C1326       C  0.36374181  0.41417705  0.91479497    -0.15100
C1327       C  0.37796432  0.42936144  0.90359388     0.03800
C1328       C  0.37395974  0.45165925  0.90729282    -0.10500
C1329       C  0.35545290  0.45802076  0.92197889    -0.00500
C1330       C  0.34127672  0.44280702  0.93294634    -0.05600
H1331       H  0.36695634  0.39713733  0.91209596     0.06800
H1332       H  0.35189409  0.47495737  0.92495448     0.10200
Br1333     Br  0.30970575  0.40488696  0.88654726    -0.05300
Br1334     Br  0.32264650  0.37543983  0.51998449    -0.02300
Br1335     Br  0.40272530  0.41826252  0.88459711     0.00600
Br1336     Br  0.31622790  0.45283304  0.95227403    -0.03800
C1337       C  0.46015445  0.50539984  0.95063634    -0.11200
C1338       C  0.45362838  0.50693625  0.97891456     0.04300
C1339       C  0.46897199  0.50611263  0.00034865    -0.11800
C1340       C  0.49076524  0.50381640  0.99394040     0.19100
C1341       C  0.49726864  0.50249304  0.96574025    -0.08800
C1342       C  0.48198535  0.50312534  0.94438034    -0.01800
H1343       H  0.46371645  0.50666579  0.52202475     0.05600
C1344       C  0.50636047  0.50223063  0.51671941     0.21100
H1345       H  0.48719007  0.50191747  0.92271955     0.10800
C1346       C  0.51454357  0.48209852  0.52456775    -0.15100
C1347       C  0.52974418  0.48030533  0.54605395     0.03800
C1348       C  0.53714171  0.49907827  0.55995421    -0.10500
C1349       C  0.52876861  0.51922190  0.55184093    -0.00500
C1350       C  0.51350428  0.52087660  0.53051792    -0.05600
H1351       H  0.50893636  0.46768210  0.51400304     0.06800
H1352       H  0.53412917  0.53386409  0.56206691     0.10200
Br1353     Br  0.52686233  0.50014301  0.95547090    -0.05300
Br1354     Br  0.42403957  0.50839528  0.98945496    -0.02300
Br1355     Br  0.53873039  0.45166483  0.55580529     0.00600
Br1356     Br  0.50332435  0.54922780  0.02068480    -0.03800
C1357       C  0.53975888  0.50153572  0.70080415    -0.11200
C1358       C  0.53121137  0.48230826  0.71223799     0.04300
C1359       C  0.51656387  0.48335296  0.73435467    -0.11800
C1360       C  0.51037755  0.50319462  0.74578477     0.19100
C1361       C  0.51959844  0.52229926  0.73538943    -0.08800
C1362       C  0.53408373  0.52136428  0.71299754    -0.01800
H1363       H  0.51000105  0.46855303  0.74284091     0.05600
C1364       C  0.49442494  0.50340970  0.76869915     0.21100
H1365       H  0.54063301  0.53625249  0.70478726     0.10800
C1366       C  0.50081372  0.50921095  0.79590767    -0.15100
C1367       C  0.48625538  0.50881831  0.81822676     0.03800
C1368       C  0.46495785  0.50210646  0.81350779    -0.10500
C1369       C  0.45866973  0.49610056  0.78630629    -0.00500
C1370       C  0.47312113  0.49695307  0.76392314    -0.05600
H1371       H  0.51725248  0.51390771  0.79981080     0.06800
H1372       H  0.44228540  0.49125940  0.78229624     0.10200
Br1373     Br  0.51240976  0.55004533  0.75046988    -0.05300
Br1374     Br  0.53961776  0.45398845  0.70005719    -0.02300
Br1375     Br  0.49672074  0.51651026  0.85482861     0.00600
Br1376     Br  0.46279223  0.49012615  0.72699055    -0.03800
C1377       C  0.87014330  0.05022597  0.59598500    -0.11200
C1378       C  0.85107693  0.04426398  0.58192931     0.04300
C1379       C  0.83767547  0.06015175  0.57078755    -0.11800
C1380       C  0.84286715  0.08204708  0.57309351     0.19100
C1381       C  0.86162962  0.08810480  0.58742319    -0.08800
C1382       C  0.87501677  0.07225434  0.59887834    -0.01800
H1383       H  0.82311174  0.05539897  0.56006953     0.05600
C1384       C  0.82848201  0.09814743  0.56006845     0.21100
H1385       H  0.88960369  0.07717043  0.60939561     0.10800
C1386       C  0.81531022  0.11088575  0.57716191    -0.15100
C1387       C  0.80033344  0.12502100  0.56532549     0.03800
C1388       C  0.79823387  0.12639359  0.53575434    -0.10500
C1389       C  0.81206753  0.11421972  0.51876613    -0.00500
C1390       C  0.82701580  0.10013696  0.53067542    -0.05600
H1391       H  0.81653554  0.10963817  0.59981098     0.06800
H1392       H  0.81087791  0.11503005  0.99558202     0.10200
Br1393     Br  0.87011155  0.11772292  0.59052131    -0.05300
Br1394     Br  0.84181828  0.01486854  0.57796838    -0.02300
Br1395     Br  0.78400679  0.14261726  0.59073462     0.00600
Br1396     Br  0.84503909  0.08355577  0.00525854    -0.03800
C1397       C  0.80132370  0.38054148  0.77148710    -0.11200
C1398       C  0.79599718  0.40162859  0.78037653     0.04300
C1399       C  0.81169592  0.41486555  0.79222102    -0.11800
C1400       C  0.83277065  0.40760613  0.79523956     0.19100
C1401       C  0.83840366  0.38704699  0.78528535    -0.08800
C1402       C  0.82273952  0.37371373  0.77338604    -0.01800
H1403       H  0.80741698  0.43088689  0.79934843     0.05600
C1404       C  0.84841391  0.42177028  0.80930170     0.21100
H1405       H  0.82718128  0.35766573  0.76657071     0.10800
C1406       C  0.85024997  0.42112462  0.83864345    -0.15100
C1407       C  0.86344915  0.43572947  0.85295542     0.03800
C1408       C  0.87484753  0.45156910  0.83770146    -0.10500
C1409       C  0.87321510  0.45176159  0.80819793    -0.00500
C1410       C  0.86026274  0.43697838  0.79401437    -0.05600
H1411       H  0.84102952  0.40945462  0.85048791     0.06800
H1412       H  0.88208822  0.46348585  0.79599895     0.10200
Br1413     Br  0.86712618  0.37643419  0.78830636    -0.05300
Br1414     Br  0.76787763  0.41372044  0.77616433    -0.02300
Br1415     Br  0.86407291  0.43380753  0.89320093     0.00600
Br1416     Br  0.85900826  0.43823117  0.75377569    -0.03800
C1417       C  0.70114134  0.37542531  0.71707606    -0.11200
C1418       C  0.70594812  0.39361370  0.70029707     0.04300
C1419       C  0.68946730  0.40694853  0.69084822    -0.11800
C1420       C  0.66812498  0.40261873  0.69771339     0.19100
C1421       C  0.66319049  0.38454069  0.71429842    -0.08800
C1422       C  0.67967229  0.37117462  0.72400907    -0.01800
H1423       H  0.69332425  0.42095525  0.67822533     0.05600
C1424       C  0.65147459  0.41753640  0.68751473     0.21100
H1425       H  0.67566686  0.35731634  0.73681109     0.10800
C1426       C  0.63892450  0.41175286  0.66431230    -0.15100
C1427       C  0.62470049  0.42650616  0.65213048     0.03800
C1428       C  0.62299525  0.44763352  0.66327250    -0.10500
C1429       C  0.63519695  0.45295583  0.68719118    -0.00500
C1430       C  0.64932226  0.43819644  0.69921155    -0.05600
H1431       H  0.64060007  0.39582247  0.65522594     0.06800
H1432       H  0.63407714  0.46885606  0.69648456     0.10200
Br1433     Br  0.63427529  0.37784685  0.72457261    -0.05300
Br1434     Br  0.73461703  0.40210927  0.69072552    -0.02300
Br1435     Br  0.60865581  0.41652274  0.62025718     0.00600
Br1436     Br  0.66554700  0.44703765  0.73148583    -0.03800
C1437       C  0.75329004  0.29153551  0.82041965    -0.11200
C1438       C  0.77275978  0.28442981  0.83249537     0.04300
C1439       C  0.77249336  0.26943322  0.85442390    -0.11800
C1440       C  0.75316775  0.26122157  0.86476670     0.19100
C1441       C  0.73372892  0.26874914  0.85346190    -0.08800
C1442       C  0.73390900  0.28377484  0.83151201    -0.01800
H1443       H  0.78748992  0.26408372  0.86347678     0.05600
C1444       C  0.75363447  0.24490109  0.88743816     0.21100
H1445       H  0.71881146  0.28899612  0.82264034     0.10800
C1446       C  0.74604352  0.25041777  0.91418305    -0.15100
C1447       C  0.74572548  0.23527026  0.93592571     0.03800
C1448       C  0.75306124  0.21403843  0.93101928    -0.10500
C1449       C  0.76142857  0.20879051  0.90450931    -0.00500
C1450       C  0.76173163  0.22400202  0.88278241    -0.05600
H1451       H  0.74035000  0.26663746  0.91814715     0.06800
H1452       H  0.76724353  0.19263510  0.90043582     0.10200
Br1453     Br  0.70658733  0.25828076  0.86652093    -0.05300
Br1454     Br  0.80031252  0.29504522  0.82111282    -0.02300
Br1455     Br  0.73624096  0.24502590  0.97217461     0.00600
Br1456     Br  0.77252968  0.21524342  0.84680105    -0.03800
C1457       C  0.75368725  0.28752931  0.67882923    -0.11200
C1458       C  0.74709546  0.26593394  0.68256657     0.04300
C1459       C  0.74662864  0.25192341  0.65958571    -0.11800
C1460       C  0.75230490  0.25903519  0.63264956     0.19100
C1461       C  0.75851102  0.28067948  0.62877833    -0.08800
C1462       C  0.75953406  0.29458719  0.65187545    -0.01800
H1463       H  0.74174471  0.23533303  0.66272148     0.05600
C1464       C  0.75088228  0.24365936  0.60896093     0.21100
H1465       H  0.76416926  0.31122532  0.64855953     0.10800
C1466       C  0.73097336  0.23451091  0.60232288    -0.15100
C1467       C  0.72895711  0.21920459  0.58084838     0.03800
C1468       C  0.74718410  0.21303782  0.56516745    -0.10500
C1469       C  0.76711342  0.22223297  0.57210361    -0.00500
C1470       C  0.76914630  0.23705584  0.59401217    -0.05600
H1471       H  0.71689514  0.23923604  0.61410984     0.06800
H1472       H  0.78144583  0.21744325  0.56092825     0.10200
Br1473     Br  0.76423735  0.29247233  0.59225321    -0.05300
Br1474     Br  0.73918429  0.25425367  0.71848239    -0.02300
Br1475     Br  0.70086135  0.20769293  0.57439867     0.00600
Br1476     Br  0.79744903  0.24647269  0.60393226    -0.03800
C1477       C  0.36728816  0.04190639  0.65200131    -0.11200
C1478       C  0.35008723  0.03639165  0.67006471     0.04300
C1479       C  0.33642257  0.05245817  0.68009270    -0.11800
C1480       C  0.33906161  0.07395226  0.67200546     0.19100
C1481       C  0.35535165  0.07941453  0.65294287    -0.08800
C1482       C  0.36937987  0.06347785  0.64324157    -0.01800
H1483       H  0.32358403  0.04816582  0.69434125     0.05600
C1484       C  0.32494916  0.09037475  0.68454559     0.21100
H1485       H  0.38220609  0.06810028  0.62917588     0.10800
C1486       C  0.32863403  0.09690794  0.71232852    -0.15100
C1487       C  0.31478883  0.11133053  0.72576816     0.03800
C1488       C  0.29686538  0.11952988  0.71115056    -0.10500
C1489       C  0.29330980  0.11286991  0.68325447    -0.00500
C1490       C  0.30709493  0.09837255  0.66999676    -0.05600
H1491       H  0.34215211  0.09039418  0.72378810     0.06800
H1492       H  0.27964492  0.11888449  0.67163976     0.10200
Br1493     Br  0.35922966  0.10845850  0.64009795    -0.05300
Br1494     Br  0.34349560  0.00740241  0.68142085    -0.02300
Br1495     Br  0.32052199  0.11774225  0.76452149     0.00600
Br1496     Br  0.30046775  0.08929928  0.63244094    -0.03800
C1497       C  0.62252740  0.94341371  0.84202349    -0.11200
C1498       C  0.62419444  0.94100688  0.81256380     0.04300
C1499       C  0.63882961  0.92633063  0.80120458    -0.11800
C1500       C  0.65179687  0.91372056  0.81869264     0.19100
C1501       C  0.64935540  0.91524557  0.84804530    -0.08800
C1502       C  0.63474194  0.92994853  0.85949090    -0.01800
H1503       H  0.64036805  0.92499569  0.77859360     0.05600
C1504       C  0.66869809  0.90016732  0.80595198     0.21100
H1505       H  0.63345281  0.93135289  0.88211916     0.10800
C1506       C  0.68997219  0.90725811  0.80715449    -0.15100
C1507       C  0.70649858  0.89515257  0.79511435     0.03800
C1508       C  0.70184545  0.87531491  0.78173740    -0.10500
C1509       C  0.68039653  0.86857655  0.77994725    -0.00500
C1510       C  0.66390268  0.88082113  0.79186198    -0.05600
H1511       H  0.69370140  0.92242791  0.81734068     0.06800
H1512       H  0.67644828  0.85345180  0.76980984     0.10200
Br1513     Br  0.66576102  0.89765597  0.87321096    -0.05300
Br1514     Br  0.60636547  0.95663867  0.78674482    -0.02300
Br1515     Br  0.73475124  0.90734753  0.79642616     0.00600
Br1516     Br  0.63517480  0.87016704  0.78916679    -0.03800
C1517       C  0.62739386  0.04357054  0.90739542    -0.11200
C1518       C  0.62766495  0.06532140  0.89825756     0.04300
C1519       C  0.64233349  0.07989242  0.90998745    -0.11800
C1520       C  0.65681689  0.07337079  0.93080877     0.19100
C1521       C  0.65661563  0.05185025  0.93996045    -0.08800
C1522       C  0.64207460  0.03723117  0.92830660    -0.01800
H1523       H  0.64240422  0.09649108  0.90290352     0.05600
C1524       C  0.67204552  0.08923529  0.94270042     0.21100
H1525       H  0.64234821  0.02073296  0.93573916     0.10800
C1526       C  0.66851046  0.09761251  0.96966464    -0.15100
C1527       C  0.68261171  0.11267951  0.98154346     0.03800
C1528       C  0.70072883  0.11973466  0.96617647    -0.10500
C1529       C  0.70414746  0.11110170  0.93914750    -0.00500
C1530       C  0.69006135  0.09603622  0.92744957    -0.05600
H1531       H  0.65471966  0.09229504  0.98159215     0.06800
H1532       H  0.71790225  0.11606071  0.92690270     0.10200
Br1533     Br  0.67625426  0.04156020  0.96789442    -0.05300
Br1534     Br  0.60850285  0.07664111  0.87037471    -0.02300
Br1535     Br  0.67612137  0.12211800  0.51883370     0.00600
Br1536     Br  0.69638863  0.08465331  0.89088045    -0.03800
C1537       C  0.53747471  0.99289524  0.94662617    -0.11200
C1538       C  0.51621604  0.99995063  0.94259238     0.04300
C1539       C  0.50190184  0.99990893  0.96514190    -0.11800
C1540       C  0.50853297  0.99368315  0.99209791     0.19100
C1541       C  0.52978969  0.98670272  0.99614175    -0.08800
C1542       C  0.54394581  0.98604957  0.97339036    -0.01800
H1543       H  0.48550370  0.00493039  0.96168397     0.05600
C1544       C  0.49284056  0.99443330  0.51576583     0.21100
H1545       H  0.56029405  0.98085648  0.97683140     0.10800
C1546       C  0.48753940  0.97520497  0.52951916    -0.15100
C1547       C  0.47284507  0.97496022  0.55166548     0.03800
C1548       C  0.46281535  0.99437198  0.56029278    -0.10500
C1549       C  0.46794953  0.01356370  0.54610726    -0.00500
C1550       C  0.48283222  0.01374171  0.52414145    -0.05600
H1551       H  0.49483311  0.96005904  0.02259495     0.06800
H1552       H  0.46055125  0.02861720  0.55232277     0.10200
Br1553     Br  0.54060652  0.97952083  0.53281685    -0.05300
Br1554     Br  0.50551902  0.00914638  0.90668214    -0.02300
Br1555     Br  0.46695094  0.94725959  0.56804599     0.00600
Br1556     Br  0.48950303  0.04092429  0.50697579    -0.03800
C1557       C  0.53509347  0.99535420  0.81021602    -0.11200
C1558       C  0.51700898  0.98151971  0.81033363     0.04300
C1559       C  0.50272273  0.98175263  0.78771219    -0.11800
C1560       C  0.50583894  0.99560474  0.76488472     0.19100
C1561       C  0.52353379  0.00960170  0.76481426    -0.08800
C1562       C  0.53796628  0.00938037  0.78729923    -0.01800
H1563       H  0.48892234  0.97116489  0.78801359     0.05600
C1564       C  0.49008861  0.99545980  0.74172806     0.21100
H1565       H  0.55165168  0.02009038  0.78663413     0.10800
C1566       C  0.47518037  0.01225680  0.73973703    -0.15100
C1567       C  0.45955860  0.01224344  0.71864696     0.03800
C1568       C  0.45855329  0.99499310  0.69927527    -0.10500
C1569       C  0.47336405  0.97807115  0.70159276    -0.00500
C1570       C  0.48918236  0.97831661  0.72239919    -0.05600
H1571       H  0.47562931  0.02535668  0.75479676     0.06800
H1572       H  0.47303797  0.96490218  0.68663423     0.10200
Br1573     Br  0.52891019  0.02885661  0.73410856    -0.05300
Br1574     Br  0.50997898  0.96245583  0.84080652    -0.02300
Br1575     Br  0.43945628  0.03563643  0.71837810     0.00600
Br1576     Br  0.50982343  0.95544091  0.72289066    -0.03800
C1577       C  0.12791453  0.95278028  0.90745931    -0.11200
C1578       C  0.14678430  0.95895136  0.92185657     0.04300
C1579       C  0.16011545  0.94321107  0.93357493    -0.11800
C1580       C  0.15509906  0.92128224  0.93126791     0.19100
C1581       C  0.13652886  0.91502455  0.91672100    -0.08800
C1582       C  0.12316669  0.93070002  0.90484327    -0.01800
H1583       H  0.17460280  0.94808150  0.94436491     0.05600
C1584       C  0.16989988  0.90518836  0.94335908     0.21100
H1585       H  0.10881032  0.92559705  0.89394973     0.10800
C1586       C  0.16621706  0.89708278  0.97041769    -0.15100
C1587       C  0.18040954  0.88232733  0.98273853     0.03800
C1588       C  0.19890544  0.87566444  0.96789477    -0.10500
C1589       C  0.20226677  0.88377195  0.94059827    -0.00500
C1590       C  0.18795089  0.89826917  0.92832281    -0.05600
H1591       H  0.15227843  0.90237819  0.98206180     0.06800
H1592       H  0.21609531  0.87875553  0.92853700     0.10200
Br1593     Br  0.12896935  0.88523110  0.91256680    -0.05300
Br1594     Br  0.15603940  0.98839415  0.92508666    -0.02300
Br1595     Br  0.17367720  0.87259905  0.01999320     0.00600
Br1596     Br  0.19350420  0.90806931  0.89078683    -0.03800
C1597       C  0.29835824  0.87180006  0.53159606    -0.11200
C1598       C  0.30901049  0.86642339  0.55673151     0.04300
C1599       C  0.32397304  0.88067955  0.56831031    -0.11800
C1600       C  0.32814774  0.90069486  0.55567947     0.19100
C1601       C  0.31759291  0.90596623  0.53034177    -0.08800
C1602       C  0.30303010  0.89143261  0.51837697    -0.01800
H1603       H  0.33228307  0.87619905  0.58741474     0.05600
C1604       C  0.34371423  0.91566876  0.56901950     0.21100
H1605       H  0.29471113  0.89584002  0.49924693     0.10800
C1606       C  0.36198763  0.92198738  0.55398696    -0.15100
C1607       C  0.37664368  0.93662602  0.56541804     0.03800
C1608       C  0.37351603  0.94475231  0.59281205    -0.10500
C1609       C  0.35568238  0.93784857  0.60827934    -0.00500
C1610       C  0.34070062  0.92364654  0.59653436    -0.05600
H1611       H  0.36476235  0.91562984  0.53309770     0.06800
H1612       H  0.35295645  0.94416264  0.62920323     0.10200
Br1613     Br  0.32141704  0.93331576  0.51215007    -0.05300
Br1614     Br  0.30414116  0.83951270  0.57558038    -0.02300
Br1615     Br  0.40099394  0.94434666  0.54296560     0.00600
Br1616     Br  0.31577012  0.91680530  0.61833980    -0.03800
C1617       C  0.12646752  0.54407491  0.65767397    -0.11200
C1618       C  0.13347024  0.54291465  0.68593957     0.04300
C1619       C  0.14759483  0.55838461  0.69648172    -0.11800
C1620       C  0.15454241  0.57559251  0.67980591     0.19100
C1621       C  0.14693951  0.57737347  0.65202359    -0.08800
C1622       C  0.13307111  0.56166462  0.64116560    -0.01800
H1623       H  0.15323242  0.55697634  0.71793617     0.05600
C1624       C  0.17045874  0.59083279  0.69155383     0.21100
H1625       H  0.12762406  0.56311049  0.61964108     0.10800
C1626       C  0.19097573  0.59156802  0.67975665    -0.15100
C1627       C  0.20688441  0.60490124  0.69096719     0.03800
C1628       C  0.20236775  0.61788483  0.71477455    -0.10500
C1629       C  0.18183202  0.61681581  0.72676417    -0.00500
C1630       C  0.16595394  0.60354599  0.71534600    -0.05600
H1631       H  0.19470873  0.58146287  0.66183740     0.06800
H1632       H  0.17791144  0.62664446  0.74486105     0.10200
Br1633     Br  0.15458356  0.60127509  0.62847145    -0.05300
Br1634     Br  0.12359608  0.52152763  0.71210582    -0.02300
Br1635     Br  0.23437692  0.60371085  0.67289305     0.00600
Br1636     Br  0.13812855  0.60402588  0.73236980    -0.03800
C1637       C  0.29811579  0.61831186  0.77565645    -0.11200
C1638       C  0.29320989  0.59693151  0.78366462     0.04300
C1639       C  0.30914560  0.58384165  0.79526817    -0.11800
C1640       C  0.33000108  0.59163733  0.79891596     0.19100
C1641       C  0.33520351  0.61248079  0.78958777    -0.08800
C1642       C  0.31931061  0.62564456  0.77805601    -0.01800
H1643       H  0.30522366  0.56756638  0.80172706     0.05600
C1644       C  0.34606112  0.57776356  0.81261930     0.21100
H1645       H  0.32343018  0.64188562  0.77168034     0.10800
C1646       C  0.35608454  0.56163157  0.79690334    -0.15100
C1647       C  0.37086423  0.54769147  0.80937449     0.03800
C1648       C  0.37555385  0.54957453  0.83843806    -0.10500
C1649       C  0.36580153  0.56619108  0.85391814    -0.00500
C1650       C  0.35113277  0.58019066  0.84123981    -0.05600
H1651       H  0.35241578  0.55993515  0.77475778     0.06800
H1652       H  0.36917667  0.56800434  0.87611784     0.10200
Br1653     Br  0.36376577  0.62357859  0.79243102    -0.05300
Br1654     Br  0.26544076  0.58430613  0.77812046    -0.02300
Br1655     Br  0.38451331  0.52721698  0.78489108     0.00600
Br1656     Br  0.33787584  0.60201449  0.86388617    -0.03800
C1657       C  0.24370385  0.70849334  0.81868971    -0.11200
C1658       C  0.22564744  0.72166604  0.82377245     0.04300
C1659       C  0.22591662  0.73637921  0.84613080    -0.11800
C1660       C  0.24396463  0.73833703  0.86343710     0.19100
C1661       C  0.26185366  0.72514422  0.85856047    -0.08800
C1662       C  0.26167195  0.71052385  0.83626470    -0.01800
H1663       H  0.21215286  0.74663942  0.84972597     0.05600
C1664       C  0.24410803  0.75441648  0.88627876     0.21100
H1665       H  0.27564541  0.70053313  0.83281511     0.10800
C1666       C  0.23316097  0.74997889  0.91126872    -0.15100
C1667       C  0.23376624  0.76447878  0.93378862     0.03800
C1668       C  0.24575033  0.78377873  0.93148365    -0.10500
C1669       C  0.25661940  0.78813800  0.90630515    -0.00500
C1670       C  0.25560812  0.77380093  0.88367797    -0.05600
H1671       H  0.22431885  0.73503344  0.91335793     0.06800
H1672       H  0.26554526  0.80300363  0.90395590     0.10200
Br1673     Br  0.28676065  0.72633034  0.88212011    -0.05300
Br1674     Br  0.20084523  0.72156620  0.79996859    -0.02300
Br1675     Br  0.21870087  0.75631929  0.96734013     0.00600
Br1676     Br  0.26956357  0.78159910  0.84925902    -0.03800
C1677       C  0.25028623  0.70795503  0.67841332    -0.11200
C1678       C  0.26904867  0.71715292  0.66691659     0.04300
C1679       C  0.26742413  0.73189333  0.64475978    -0.11800
C1680       C  0.24743334  0.73770102  0.63374237     0.19100
C1681       C  0.22880394  0.72814330  0.64461008    -0.08800
C1682       C  0.23033045  0.71360050  0.66686537    -0.01800
H1683       H  0.28183683  0.73910809  0.63627516     0.05600
C1684       C  0.24643975  0.75352832  0.61064551     0.21100
H1685       H  0.21574866  0.70649614  0.67498028     0.10800
C1686       C  0.25434716  0.74771469  0.58419807    -0.15100
C1687       C  0.25410505  0.76233244  0.56186425     0.03800
C1688       C  0.24573715  0.78331730  0.56588432    -0.10500
C1689       C  0.23768643  0.78900294  0.59243066    -0.00500
C1690       C  0.23820169  0.77440247  0.61479823    -0.05600
H1691       H  0.26069807  0.73165410  0.58091643     0.06800
H1692       H  0.23149908  0.80507842  0.59604437     0.10200
Br1693     Br  0.20098969  0.73386080  0.62918778    -0.05300
Br1694     Br  0.29724640  0.71125599  0.68100089    -0.02300
Br1695     Br  0.26472563  0.75210103  0.52638507     0.00600
Br1696     Br  0.22850412  0.78402612  0.65095439    -0.03800
loop_ 
_geom_bond_atom_site_label_1 
_geom_bond_atom_site_label_2 
_geom_bond_distance 
_geom_bond_site_symmetry_2 
_ccdc_geom_bond_type 
O1            C4   1.267       .  A
O1           Cd6   2.472       .  S
C2           O11   1.265       .  A
C2            O7   1.268       .  A
C2          C789   1.477       .  S
O3            C9   1.267       .  A
O3           Cd6   2.488       .  S
C4           O12   1.264       .  A
C4          C829   1.480       .  S
C5           O10   1.270       .  A
C5            O8   1.263       .  A
C5          C780   1.485       .  S
Cd6          O13   2.440       .  S
Cd6          O12   2.422       .  S
Cd6          O11   2.441       .  S
Cd6           O7   2.468       .  S
Cd6          O10   2.474       .  S
Cd6           O8   2.424       .  S
C9           O13   1.264       .  A
C9          C809   1.480       .  S
O14          C17   1.271       .  A
O14         Cd19   2.475       .  S
C15          O24   1.263       .  A
C15          O20   1.268   1_554  A
C15         C749   1.475       .  S
O16          C22   1.268       .  A
O16         Cd19   2.490       .  S
C17          O25   1.264       .  A
C17         C820   1.479       .  S
C18          O23   1.271       .  A
C18          O21   1.265       .  A
C18         C840   1.480       .  S
Cd19         O26   2.437       .  S
Cd19         O25   2.429       .  S
Cd19        O872   2.445       .  S
Cd19        O868   2.493       .  S
Cd19        O871   2.470       .  S
Cd19        O869   2.421       .  S
O20        Cd867   2.493       .  S
O21        Cd867   2.422   1_554  S
C22          O26   1.264       .  A
C22         C740   1.488       .  S
O23        Cd867   2.471   1_554  S
O24        Cd867   2.446   1_554  S
O27          C30   1.269       .  A
O27         Cd32   2.475       .  S
C28          O37   1.264       .  A
C28          O33   1.269       .  A
C28         C649   1.480       .  S
O29          C35   1.270   1_545  A
O29         Cd32   2.476   1_545  S
C30          O38   1.264   1_565  A
C30         C689   1.474       .  S
C31          O36   1.267       .  A
C31          O34   1.265       .  A
C31         C669   1.491       .  S
Cd32         O39   2.433       .  S
Cd32         O38   2.426   1_565  S
Cd32         O37   2.433       .  S
Cd32         O33   2.491       .  S
Cd32         O36   2.488   1_565  S
Cd32         O34   2.447   1_565  S
C35          O39   1.264       .  A
C35         C709   1.486       .  S
O40          C43   1.269       .  A
O40         Cd45   2.479       .  S
C41          O50   1.264       .  A
C41          O46   1.269       .  A
C41         C760   1.478       .  S
O42          C48   1.270       .  A
O42         Cd45   2.482   1_545  S
C43          O51   1.264   1_565  A
C43         C720   1.479       .  S
C44          O49   1.271   1_565  A
C44          O47   1.263       .  A
C44         C700   1.485       .  S
Cd45         O52   2.425   1_565  S
Cd45         O51   2.454   1_565  S
Cd45         O50   2.444       .  S
Cd45         O46   2.490       .  S
Cd45         O49   2.480   1_565  S
Cd45         O47   2.427       .  S
C48          O52   1.263       .  A
C48         C629   1.484       .  S
O53          C56   1.269       .  A
O53         Cd58   2.486       .  S
C54          O63   1.263       .  A
C54          O59   1.268       .  A
C54         C569   1.479       .  S
O55          C61   1.268       .  A
O55         Cd58   2.487       .  S
C56          O64   1.264       .  A
C56         C589   1.484       .  S
C57          O62   1.268       .  A
C57          O60   1.264       .  A
C57         C609   1.476       .  S
Cd58         O65   2.442       .  S
Cd58         O64   2.438       .  S
Cd58         O63   2.427       .  S
Cd58         O59   2.482       .  S
Cd58         O62   2.469       .  S
Cd58         O60   2.433       .  S
C61          O65   1.264       .  A
C61         C549   1.481       .  S
O66          C69   1.269       .  A
O66         Cd71   2.486       .  S
C67          O76   1.263       .  A
C67          O72   1.269   1_554  A
C67         C540   1.482       .  S
O68          C74   1.270       .  A
O68        Cd919   2.482   1_554  S
C69          O77   1.264       .  A
C69         C600   1.479       .  S
C70          O75   1.267       .  A
C70          O73   1.265       .  A
C70         C680   1.492       .  S
Cd71         O77   2.432       .  S
Cd71         O75   2.496       .  S
Cd71         O73   2.456       .  S
Cd71        O916   2.483       .  S
Cd71        O926   2.415       .  S
Cd71        O924   2.444       .  S
Cd71        O920   2.488       .  S
O72        Cd919   2.487       .  S
C74          O78   1.265       .  A
C74         C620   1.485       .  S
O76        Cd919   2.442   1_554  S
O78        Cd919   2.416   1_554  S
O79          C82   1.267       .  A
O79         Cd84   2.472       .  S
C80          O89   1.266       .  A
C80          O85   1.270       .  A
C80         C520   1.475       .  S
O81          C87   1.271       .  A
O81         Cd84   2.495       .  S
C82          O90   1.265       .  A
C82         C480   1.484       .  S
C83          O88   1.270       .  A
C83          O86   1.264       .  A
C83         C489   1.471       .  S
Cd84         O91   2.415       .  S
Cd84         O90   2.440       .  S
Cd84         O89   2.436       .  S
Cd84         O85   2.461       .  S
Cd84         O88   2.486       .  S
Cd84         O86   2.416       .  S
C87          O91   1.262       .  A
C87         C800   1.483       .  S
O92          C95   1.269       .  A
O92         Cd97   2.480       .  S
C93         O102   1.266       .  A
C93          O98   1.268       .  A
C93         C449   1.482       .  S
O94         C100   1.268       .  A
O94         Cd97   2.479       .  S
C95         O103   1.263       .  A
C95         C509   1.480       .  S
C96         O101   1.267       .  A
C96          O99   1.265       .  A
C96         C500   1.485       .  S
Cd97        O104   2.426       .  S
Cd97        O103   2.420       .  S
Cd97        O102   2.445       .  S
Cd97         O98   2.474       .  S
Cd97        O101   2.474       .  S
Cd97         O99   2.435       .  S
C100        O104   1.265       .  A
C100        C580   1.487       .  S
O105        C108   1.271       .  A
O105       Cd110   2.489       .  S
C106        O115   1.263       .  A
C106        O111   1.269       .  A
C106        C389   1.486       .  S
O107        C113   1.269       .  A
O107       Cd110   2.484       .  S
C108        O116   1.264       .  A
C108        C409   1.485       .  S
C109        O114   1.268       .  A
C109        O112   1.263       .  A
C109        C429   1.475       .  S
Cd110       O117   2.437       .  S
Cd110       O116   2.432       .  S
Cd110       O963   2.452   1_554  S
Cd110       O959   2.497   1_554  S
Cd110       O962   2.483   1_554  S
Cd110       O960   2.435   1_554  S
O111       Cd958   2.497       .  S
O112       Cd958   2.435       .  S
C113        O117   1.263       .  A
C113        C460   1.485       .  S
O114       Cd958   2.483       .  S
O115       Cd958   2.452       .  S
O118        C121   1.269       .  A
O118       Cd123   2.476       .  S
C119        O128   1.265       .  A
C119        O124   1.269       .  A
C119        C660   1.484       .  S
O120        C126   1.270       .  A
O120       Cd123   2.485       .  S
C121        O129   1.264       .  A
C121        C420   1.481       .  S
C122        O127   1.270       .  A
C122        O125   1.263       .  A
C122        C369   1.485       .  S
Cd123       O130   2.414       .  S
Cd123       O129   2.443       .  S
Cd123       O128   2.446       .  S
Cd123       O124   2.478       .  S
Cd123       O127   2.490       .  S
Cd123       O125   2.428       .  S
C126        O130   1.264       .  A
C126        C440   1.480       .  S
O131        C134   1.270       .  A
O131       Cd136   2.485       .  S
C132        O141   1.265   1_545  A
C132        O137   1.270       .  A
C132        C360   1.479       .  S
O133        C139   1.271       .  A
O133       Cd136   2.501   1_565  S
C134        O142   1.264       .  A
C134        C529   1.483       .  S
C135        O140   1.272   1_545  A
C135        O138   1.263       .  A
C135        C329   1.487       .  S
Cd136       O143   2.432   1_545  S
Cd136       O142   2.431       .  S
Cd136       O141   2.431   1_545  S
Cd136       O137   2.478       .  S
Cd136       O140   2.498   1_545  S
Cd136       O138   2.420       .  S
C139        O143   1.263       .  A
C139        C380   1.490       .  S
O144        C147   1.269       .  A
O144       Cd149   2.492   1_565  S
C145        O154   1.264   1_565  A
C145        O150   1.268       .  A
C145        C349   1.478       .  S
O146        C152   1.268       .  A
O146       Cd149   2.490       .  S
C147        O155   1.264       .  A
C147        C729   1.484       .  S
C148        O153   1.268       .  A
C148        O151   1.266       .  A
C148        C309   1.492       .  S
Cd149       O156   2.440   1_545  S
Cd149       O155   2.442   1_545  S
Cd149       O154   2.440       .  S
Cd149       O150   2.501   1_545  S
Cd149       O153   2.494       .  S
Cd149       O151   2.444       .  S
C152        O156   1.263   1_545  A
C152        C340   1.482       .  S
O157        C160   1.270       .  A
O157       Cd162   2.477       .  S
C158        O167   1.266       .  A
C158        O163   1.269       .  A
C158        C640   1.479       .  S
O159        C165   1.270       .  A
O159       Cd162   2.480       .  S
C160        O168   1.263       .  A
C160        C300   1.480       .  S
C161        O166   1.271       .  A
C161        O164   1.264       .  A
C161        C269   1.476       .  S
Cd162       O169   2.441       .  S
Cd162       O168   2.422       .  S
Cd162       O167   2.419       .  S
Cd162       O163   2.469       .  S
Cd162       O166   2.482       .  S
Cd162       O164   2.420       .  S
C165        O169   1.263       .  A
C165        C320   1.487       .  S
O170        C173   1.268       .  A
O170       Cd175   2.464       .  S
C171        O180   1.265       .  A
C171        O176   1.266   1_554  A
C171        C260   1.487       .  S
O172        C178   1.269       .  A
O172      Cd1023   2.478   1_554  S
C173        O181   1.265       .  A
C173        C289   1.475       .  S
C174        O179   1.268       .  A
C174        O177   1.266       .  A
C174        C469   1.481       .  S
Cd175       O181   2.427       .  S
Cd175       O179   2.472       .  S
Cd175       O177   2.432       .  S
Cd175      O1020   2.476       .  S
Cd175      O1030   2.416       .  S
Cd175      O1028   2.441       .  S
Cd175      O1024   2.472       .  S
O176      Cd1023   2.473       .  S
C178        O182   1.262       .  A
C178        C280   1.476       .  S
O180      Cd1023   2.441   1_554  S
O182      Cd1023   2.417   1_554  S
O183        C186   1.269       .  A
O183       Cd188   2.494       .  S
C184        O193   1.266       .  A
C184        O189   1.268       .  A
C184        C400   1.487       .  S
O185        C191   1.269       .  A
O185       Cd188   2.480       .  S
C186        O194   1.263       .  A
C186        C229   1.476       .  S
C187        O192   1.268       .  A
C187        O190   1.263       .  A
C187        C209   1.477       .  S
Cd188       O195   2.430       .  S
Cd188       O194   2.437       .  S
Cd188       O193   2.455       .  S
Cd188       O189   2.479       .  S
Cd188       O192   2.484       .  S
Cd188       O190   2.435       .  S
C191        O195   1.266       .  A
C191        C560   1.482       .  S
O196        C199   1.267       .  A
O196       Cd201   2.487       .  S
C197        O206   1.263       .  A
C197        O202   1.270       .  A
C197        C240   1.485       .  S
O198        C204   1.269       .  A
O198       Cd201   2.499       .  S
C199        O207   1.266       .  A
C199        C249   1.489       .  S
C200        O205   1.270       .  A
C200        O203   1.262       .  A
C200        C220   1.489       .  S
Cd201       O208   2.431       .  S
Cd201       O207   2.435       .  S
Cd201       O206   2.426       .  S
Cd201       O202   2.496       .  S
Cd201       O205   2.500       .  S
Cd201       O203   2.429       .  S
C204        O208   1.263       .  A
C204        C769   1.485       .  S
C209        C210   1.413       .  A
C209        C214   1.404       .  A
C210        C211   1.399       .  A
C210       Br226   1.922       .  S
C211        C212   1.402       .  A
C211       H1063   1.084       .  S
C212       C1064   1.481   1_655  S
C212        C213   1.409       .  A
C213        C214   1.399       .  A
C213       Br225   1.918   1_655  S
C214        H217   1.083       .  S
H215       C1059   1.084       .  S
C216       C1060   1.481   1_454  S
C216        C218   1.399       .  A
C216        C222   1.408       .  A
C218        C219   1.398       .  A
C218        H223   1.084   1_455  S
C219        C220   1.419       .  A
C219       Br227   1.923       .  S
C220        C221   1.408       .  A
C221        C222   1.401       .  A
C221        H224   1.083       .  S
C222      Br1076   1.919   1_554  S
Br228      C1070   1.919       .  S
C229        C230   1.412       .  A
C229        C234   1.404       .  A
C230        C231   1.399       .  A
C230       Br246   1.921       .  S
C231        C232   1.401       .  A
C231        H235   1.084       .  S
C232        C236   1.477   1_655  S
C232        C233   1.407       .  A
C233        C234   1.401       .  A
C233       Br245   1.917   1_655  S
C234        H237   1.083       .  S
C236        C238   1.398       .  A
C236        C242   1.407       .  A
C238        C239   1.397       .  A
C238        H243   1.084   1_455  S
C239        C240   1.417       .  A
C239       Br247   1.922       .  S
C240        C241   1.408       .  A
C241        C242   1.403       .  A
C241        H244   1.083       .  S
C242       Br248   1.918       .  S
C249        C250   1.419       .  A
C249        C254   1.408       .  A
C250        C251   1.404       .  A
C250       Br266   1.921       .  S
C251        C252   1.402       .  A
C251        H255   1.084       .  S
C252        C256   1.477       .  S
C252        C253   1.403       .  A
C253        C254   1.394       .  A
C253       Br265   1.920       .  S
C254        H257   1.083       .  S
C256        C258   1.402       .  A
C256        C262   1.404       .  A
C258        C259   1.401       .  A
C258        H263   1.084       .  S
C259        C260   1.417       .  A
C259      Br1115   1.921   1_554  S
C260        C261   1.409       .  A
C261        C262   1.397       .  A
C261        H264   1.083       .  S
C262       Br268   1.919       .  S
Br267      C1107   1.921       .  S
C269        C270   1.414       .  A
C269        C274   1.405       .  A
C270        C271   1.397       .  A
C270       Br286   1.921       .  S
C271        C272   1.398       .  A
C271        H275   1.084       .  S
C272        C276   1.472       .  S
C272        C273   1.406       .  A
C273        C274   1.399       .  A
C273       Br285   1.918       .  S
C274        H277   1.083       .  S
C276        C278   1.399       .  A
C276        C282   1.406       .  A
C278        C279   1.397       .  A
C278        H283   1.084       .  S
C279        C280   1.415       .  A
C279       Br287   1.922       .  S
C280        C281   1.405       .  A
C281        C282   1.398       .  A
C281        H284   1.083       .  S
C282       Br288   1.918       .  S
C289        C290   1.412       .  A
C289        C294   1.405       .  A
C290        C291   1.399       .  A
C290       Br306   1.920       .  S
C291        C292   1.402       .  A
C291        H295   1.084       .  S
C292        C296   1.475       .  S
C292        C293   1.406       .  A
C293        C294   1.396       .  A
C293       Br305   1.919       .  S
C294        H297   1.084       .  S
C296        C298   1.399       .  A
C296        C302   1.407       .  A
C298        C299   1.398       .  A
C298        H303   1.084       .  S
C299        C300   1.416       .  A
C299       Br307   1.922       .  S
C300        C301   1.405       .  A
C301        C302   1.398       .  A
C301        H304   1.083       .  S
C302       Br308   1.919       .  S
C309        C310   1.419       .  A
C309        C314   1.409       .  A
C310        C311   1.404       .  A
C310       Br326   1.920       .  S
C311        C312   1.401       .  A
C311        H315   1.084       .  S
C312        C316   1.478       .  S
C312        C313   1.403       .  A
C313        C314   1.397       .  A
C313       Br325   1.919       .  S
C314        H317   1.083       .  S
C316        C318   1.400       .  A
C316        C322   1.405       .  A
C318        C319   1.400       .  A
C318        H323   1.084       .  S
C319        C320   1.419       .  A
C319       Br327   1.923       .  S
C320        C321   1.407       .  A
C321        C322   1.400       .  A
C321        H324   1.083       .  S
C322       Br328   1.917       .  S
C329        C330   1.419       .  A
C329        C334   1.405   1_545  A
C330        C331   1.399       .  A
C330       Br346   1.923       .  S
C331        C332   1.401       .  A
C331        H335   1.084   1_655  S
C332       C1184   1.485   1_654  S
C332        C333   1.411   1_545  A
C333        C334   1.401       .  A
C333      Br1193   1.921   1_554  S
C334        H337   1.083       .  S
C336       C1180   1.485   1_455  S
C336        C338   1.402   1_545  A
C336        C342   1.411       .  A
C338        C339   1.397       .  A
C338       H1191   1.084       .  S
C339        C340   1.415   1_565  A
C339       Br347   1.922       .  S
C340        C341   1.405       .  A
C341        C342   1.401       .  A
C341        H344   1.083       .  S
C342       Br348   1.920       .  S
H343       C1186   1.084       .  S
Br345      C1181   1.921       .  S
C349        C350   1.412   1_565  A
C349        C354   1.405       .  A
C350        C351   1.399       .  A
C350       Br366   1.921       .  S
C351        C352   1.401   1_545  A
C351        H355   1.084       .  S
C352        C356   1.479   1_455  S
C352        C353   1.408       .  A
C353        C354   1.403       .  A
C353       Br365   1.918   1_455  S
C354        H357   1.083       .  S
C356        C358   1.400       .  A
C356        C362   1.408   1_565  A
C358        C359   1.399       .  A
C358        H363   1.084   1_655  S
C359        C360   1.414   1_565  A
C359       Br367   1.921       .  S
C360        C361   1.404       .  A
C361        C362   1.401       .  A
C361        H364   1.084       .  S
C362       Br368   1.918       .  S
C369        C370   1.417       .  A
C369        C374   1.406       .  A
C370        C371   1.398       .  A
C370       Br386   1.922       .  S
C371        C372   1.400       .  A
C371        H375   1.084       .  S
C372        C376   1.483       .  S
C372        C373   1.409       .  A
C373        C374   1.402       .  A
C373       Br385   1.919       .  S
C374        H377   1.083       .  S
C376        C378   1.400       .  A
C376        C382   1.409       .  A
C378        C379   1.399       .  A
C378        H383   1.084       .  S
C379        C380   1.419       .  A
C379       Br387   1.922       .  S
C380        C381   1.407       .  A
C381        C382   1.401       .  A
C381        H384   1.083       .  S
C382       Br388   1.919       .  S
C389        C390   1.417       .  A
C389        C394   1.406       .  A
C390        C391   1.401       .  A
C390       Br406   1.922       .  S
C391        C392   1.400       .  A
C391        H395   1.084       .  S
C392        C396   1.480       .  S
C392        C393   1.407       .  A
C393        C394   1.401       .  A
C393       Br405   1.919       .  S
C394        H397   1.083       .  S
C396        C398   1.401       .  A
C396        C402   1.406       .  A
C398        C399   1.403       .  A
C398        H403   1.084       .  S
C399        C400   1.416       .  A
C399       Br407   1.920       .  S
C400        C401   1.407       .  A
C401        C402   1.398       .  A
C401        H404   1.083       .  S
C402       Br408   1.920       .  S
C409        C410   1.418       .  A
C409        C414   1.407       .  A
C410        C411   1.399       .  A
C410       Br426   1.922       .  S
C411        C412   1.399       .  A
C411        H415   1.084       .  S
C412        C416   1.477       .  S
C412        C413   1.406       .  A
C413        C414   1.401       .  A
C413       Br425   1.918       .  S
C414        H417   1.083       .  S
C416        C418   1.400       .  A
C416        C422   1.406       .  A
C418        C419   1.400       .  A
C418        H423   1.084       .  S
C419        C420   1.416       .  A
C419       Br427   1.922       .  S
C420        C421   1.405       .  A
C421        C422   1.399       .  A
C421        H424   1.083       .  S
C422       Br428   1.918       .  S
C429        C430   1.412       .  A
C429        C434   1.404       .  A
C430        C431   1.398       .  A
C430       Br446   1.920       .  S
C431        C432   1.400       .  A
C431        H435   1.084       .  S
C432        C436   1.473       .  S
C432        C433   1.406       .  A
C433        C434   1.399       .  A
C433       Br445   1.918       .  S
C434        H437   1.084       .  S
C436        C438   1.402       .  A
C436        C442   1.402       .  A
C438        C439   1.401       .  A
C438        H443   1.084       .  S
C439        C440   1.414       .  A
C439       Br447   1.920       .  S
C440        C441   1.407       .  A
C441        C442   1.395       .  A
C441        H444   1.084       .  S
C442       Br448   1.918       .  S
C449        C450   1.414       .  A
C449        C454   1.407       .  A
C450        C451   1.401       .  A
C450       Br466   1.920       .  S
C451        C452   1.402       .  A
C451        H455   1.084       .  S
C452        C456   1.478       .  S
C452        C453   1.406       .  A
C453        C454   1.398       .  A
C453       Br465   1.919       .  S
C454        H457   1.083       .  S
C456        C458   1.399       .  A
C456        C462   1.406       .  A
C458        C459   1.399       .  A
C458        H463   1.084       .  S
C459        C460   1.418       .  A
C459       Br467   1.922       .  S
C460        C461   1.407       .  A
C461        C462   1.400       .  A
C461        H464   1.083       .  S
C462       Br468   1.918       .  S
C469        C470   1.414       .  A
C469        C474   1.407       .  A
C470        C471   1.400       .  A
C470      Br1334   1.920       .  S
C471        C472   1.401       .  A
C471        H475   1.084       .  S
C472        C476   1.473       .  S
C472        C473   1.403       .  A
C473        C474   1.396       .  A
C473       Br485   1.919       .  S
C474        H477   1.083       .  S
C476        C478   1.400       .  A
C476        C482   1.403       .  A
C478        C479   1.400       .  A
C478        H483   1.084       .  S
C479        C480   1.417       .  A
C479       Br487   1.920       .  S
C480        C481   1.408       .  A
C481        C482   1.396       .  A
C481        H484   1.083       .  S
C482       Br488   1.919       .  S
Br486      C1318   1.920   1_554  S
C489        C490   1.410       .  A
C489        C494   1.404       .  A
C490        C491   1.401       .  A
C490       Br506   1.918       .  S
C491        C492   1.403       .  A
C491       H1343   1.083       .  S
C492       C1344   1.473       .  S
C492        C493   1.405       .  A
C493        C494   1.395       .  A
C493       Br505   1.919       .  S
C494        H497   1.084       .  S
H495       C1339   1.083       .  S
C496       C1340   1.473   1_554  S
C496        C498   1.401       .  A
C496        C502   1.403       .  A
C498        C499   1.400       .  A
C498        H503   1.084       .  S
C499        C500   1.416       .  A
C499       Br507   1.921       .  S
C500        C501   1.409       .  A
C501        C502   1.396       .  A
C501        H504   1.083       .  S
C502      Br1356   1.919       .  S
Br508      C1350   1.919       .  S
C509        C510   1.416       .  A
C509        C514   1.405       .  A
C510        C511   1.397       .  A
C510       Br526   1.923       .  S
C511        C512   1.400       .  A
C511        H515   1.084       .  S
C512        C516   1.478       .  S
C512        C513   1.408       .  A
C513        C514   1.400       .  A
C513       Br525   1.918       .  S
C514        H517   1.083       .  S
C516        C518   1.402       .  A
C516        C522   1.409       .  A
C518        C519   1.399       .  A
C518        H523   1.084       .  S
C519        C520   1.412       .  A
C519       Br527   1.920       .  S
C520        C521   1.403       .  A
C521        C522   1.398       .  A
C521        H524   1.084       .  S
C522       Br528   1.919       .  S
C529        C530   1.415       .  A
C529        C534   1.407       .  A
C530        C531   1.398       .  A
C530       Br546   1.922       .  S
C531        C532   1.401       .  A
C531        H535   1.084       .  S
C532        C536   1.480       .  S
C532        C533   1.407       .  A
C533        C534   1.402       .  A
C533       Br545   1.918       .  S
C534        H537   1.083       .  S
C536        C538   1.401       .  A
C536        C542   1.408       .  A
C538        C539   1.401       .  A
C538        H543   1.083       .  S
C539        C540   1.416       .  A
C539       Br547   1.922       .  S
C540        C541   1.404       .  A
C541        C542   1.399       .  A
C541       H1392   1.083   1_554  S
C542      Br1396   1.918       .  S
H544       C1389   1.083       .  S
Br548      C1390   1.918       .  S
C549        C550   1.414       .  A
C549        C554   1.407       .  A
C550        C551   1.397       .  A
C550       Br566   1.921       .  S
C551        C552   1.399       .  A
C551        H555   1.084       .  S
C552        C556   1.474       .  S
C552        C553   1.405       .  A
C553        C554   1.401       .  A
C553       Br565   1.917       .  S
C554        H557   1.083       .  S
C556        C558   1.402       .  A
C556        C562   1.403       .  A
C558        C559   1.401       .  A
C558        H563   1.084       .  S
C559        C560   1.414       .  A
C559       Br567   1.919       .  S
C560        C561   1.408       .  A
C561        C562   1.396       .  A
C561        H564   1.083       .  S
C562       Br568   1.918       .  S
C569        C570   1.415       .  A
C569        C574   1.407       .  A
C570        C571   1.396       .  A
C570       Br586   1.922       .  S
C571        C572   1.399       .  A
C571        H575   1.084       .  S
C572        C576   1.475       .  S
C572        C573   1.406       .  A
C573        C574   1.401       .  A
C573       Br585   1.918       .  S
C574        H577   1.083       .  S
C576        C578   1.401       .  A
C576        C582   1.404       .  A
C578        C579   1.402       .  A
C578        H583   1.084       .  S
C579        C580   1.418       .  A
C579       Br587   1.920       .  S
C580        C581   1.409       .  A
C581        C582   1.395       .  A
C581        H584   1.083       .  S
C582       Br588   1.920       .  S
C589        C590   1.416       .  A
C589        C594   1.406       .  A
C590        C591   1.399       .  A
C590       Br606   1.921       .  S
C591        C592   1.400       .  A
C591        H595   1.084       .  S
C592        C596   1.481       .  S
C592        C593   1.408       .  A
C593        C594   1.400       .  A
C593       Br605   1.920       .  S
C594        H597   1.083       .  S
C596        C598   1.401       .  A
C596        C602   1.409       .  A
C598        C599   1.398       .  A
C598        H603   1.084       .  S
C599        C600   1.414       .  A
C599       Br607   1.922       .  S
C600        C601   1.404       .  A
C601        C602   1.401       .  A
C601        H604   1.084       .  S
C602       Br608   1.919       .  S
C609        C610   1.413       .  A
C609        C614   1.404       .  A
C610        C611   1.397       .  A
C610       Br626   1.922       .  S
C611        C612   1.402       .  A
C611        H615   1.084       .  S
C612        C616   1.479       .  S
C612        C613   1.410       .  A
C613        C614   1.398       .  A
C613       Br625   1.920       .  S
C614        H617   1.084       .  S
C616        C618   1.403       .  A
C616        C622   1.406       .  A
C618        C619   1.400       .  A
C618        H623   1.084       .  S
C619        C620   1.415       .  A
C619       Br627   1.920       .  S
C620        C621   1.409       .  A
C621        C622   1.396       .  A
C621        H624   1.083       .  S
C622       Br628   1.921       .  S
C629        C630   1.418       .  A
C629        C634   1.408       .  A
C630        C631   1.396       .  A
C630       Br646   1.923       .  S
C631        C632   1.398       .  A
C631        H635   1.084       .  S
C632        C636   1.473       .  S
C632        C633   1.405       .  A
C633        C634   1.400       .  A
C633       Br645   1.918       .  S
C634        H637   1.083       .  S
C636        C638   1.402       .  A
C636        C642   1.404       .  A
C638        C639   1.399       .  A
C638        H643   1.084       .  S
C639        C640   1.413       .  A
C639       Br647   1.920       .  S
C640        C641   1.408       .  A
C641        C642   1.396       .  A
C641        H644   1.084       .  S
C642       Br648   1.919       .  S
C649        C650   1.414       .  A
C649        C654   1.404       .  A
C650        C651   1.399       .  A
C650       Br666   1.922       .  S
C651        C652   1.401       .  A
C651        H655   1.084       .  S
C652        C656   1.480       .  S
C652        C653   1.408       .  A
C653        C654   1.401       .  A
C653       Br665   1.918       .  S
C654        H657   1.083       .  S
C656        C658   1.401       .  A
C656        C662   1.406       .  A
C658        C659   1.400       .  A
C658        H663   1.084       .  S
C659        C660   1.415       .  A
C659       Br667   1.922       .  S
C660        C661   1.406       .  A
C661        C662   1.400       .  A
C661        H664   1.083       .  S
C662       Br668   1.917       .  S
C669        C670   1.418       .  A
C669        C674   1.409       .  A
C670        C671   1.403       .  A
C670       Br686   1.921       .  S
C671        C672   1.402       .  A
C671        H675   1.084       .  S
C672        C676   1.481       .  S
C672        C673   1.405       .  A
C673        C674   1.398       .  A
C673       Br685   1.919       .  S
C674        H677   1.083       .  S
C676        C678   1.402       .  A
C676        C682   1.405       .  A
C678        C679   1.403       .  A
C678        H683   1.084       .  S
C679        C680   1.417       .  A
C679      Br1535   1.920       .  S
C680        C681   1.410       .  A
C681        C682   1.399       .  A
C681        H684   1.083       .  S
C682       Br688   1.919       .  S
Br687      C1527   1.920   1_554  S
C689        C690   1.412   1_565  A
C689        C694   1.402       .  A
C690        C691   1.397       .  A
C690       Br706   1.922       .  S
C691        C692   1.402   1_545  A
C691        H695   1.084       .  S
C692       C1544   1.482       .  S
C692        C693   1.411       .  A
C693        C694   1.399       .  A
C693      Br1553   1.919       .  S
C694        H697   1.084       .  S
C696       C1540   1.482   1_554  S
C696        C698   1.401       .  A
C696        C702   1.409   1_565  A
C698        C699   1.398       .  A
C698       H1551   1.084       .  S
C699        C700   1.418       .  A
C699       Br707   1.923       .  S
C700        C701   1.406   1_565  A
C701        C702   1.399       .  A
C701        H704   1.083       .  S
C702       Br708   1.920       .  S
H703       C1546   1.084       .  S
Br705      C1541   1.919   1_554  S
C709        C710   1.419       .  A
C709        C714   1.407   1_565  A
C710        C711   1.399       .  A
C710       Br726   1.923       .  S
C711        C712   1.399       .  A
C711        H715   1.084       .  S
C712        C716   1.477       .  S
C712        C713   1.406   1_565  A
C713        C714   1.399       .  A
C713       Br725   1.918       .  S
C714        H717   1.083       .  S
C716        C718   1.401   1_565  A
C716        C722   1.407       .  A
C718        C719   1.400       .  A
C718        H723   1.084       .  S
C719        C720   1.413   1_545  A
C719       Br727   1.920       .  S
C720        C721   1.404       .  A
C721        C722   1.399       .  A
C721        H724   1.083       .  S
C722       Br728   1.918       .  S
C729        C730   1.416       .  A
C729        C734   1.407       .  A
C730        C731   1.399       .  A
C730       Br746   1.922       .  S
C731        C732   1.400       .  A
C731        H735   1.083       .  S
C732        C736   1.478       .  S
C732        C733   1.406       .  A
C733        C734   1.401       .  A
C733       Br745   1.918       .  S
C734        H737   1.083       .  S
C736        C738   1.402       .  A
C736        C742   1.403       .  A
C738        C739   1.403       .  A
C738        H743   1.084       .  S
C739        C740   1.417       .  A
C739       Br747   1.920       .  S
C740        C741   1.409       .  A
C741        C742   1.397       .  A
C741        H744   1.083       .  S
C742       Br748   1.919       .  S
C749        C750   1.409       .  A
C749        C754   1.402       .  A
C750        C751   1.400       .  A
C750       Br766   1.920       .  S
C751        C752   1.404       .  A
C751        H755   1.083       .  S
C752        C756   1.487       .  S
C752        C753   1.413       .  A
C753        C754   1.401       .  A
C753       Br765   1.920       .  S
C754        H757   1.083   1_554  S
C756        C758   1.404       .  A
C756        C762   1.412       .  A
C758        C759   1.399       .  A
C758        H763   1.083       .  S
C759        C760   1.411       .  A
C759       Br767   1.920       .  S
C760        C761   1.403       .  A
C761        C762   1.401       .  A
C761        H764   1.083       .  S
C762       Br768   1.920       .  S
C769        C770   1.416       .  A
C769        C774   1.407       .  A
C770        C771   1.396       .  A
C770       Br786   1.922       .  S
C771        C772   1.399       .  A
C771        H775   1.084       .  S
C772        C776   1.481       .  S
C772        C773   1.409       .  A
C773        C774   1.402       .  A
C773       Br785   1.920       .  S
C774        H777   1.083       .  S
C776        C778   1.401       .  A
C776        C782   1.408       .  A
C778        C779   1.398       .  A
C778        H783   1.084       .  S
C779        C780   1.418       .  A
C779       Br787   1.923       .  S
C780        C781   1.406       .  A
C781        C782   1.399       .  A
C781        H784   1.083       .  S
C782       Br788   1.919       .  S
C789        C790   1.414       .  A
C789        C794   1.405       .  A
C790        C791   1.399       .  A
C790       Br806   1.922       .  S
C791        C792   1.401       .  A
C791        H795   1.084       .  S
C792        C796   1.475       .  S
C792        C793   1.405       .  A
C793        C794   1.398       .  A
C793       Br805   1.918       .  S
C794        H797   1.083       .  S
C796        C798   1.398       .  A
C796        C802   1.406       .  A
C798        C799   1.398       .  A
C798        H803   1.084       .  S
C799        C800   1.419       .  A
C799       Br807   1.923       .  S
C800        C801   1.406       .  A
C801        C802   1.400       .  A
C801        H804   1.083       .  S
C802       Br808   1.919       .  S
C809        C810   1.414       .  A
C809        C814   1.405       .  A
C810        C811   1.402       .  A
C810       Br826   1.920       .  S
C811        C812   1.402       .  A
C811        H815   1.084       .  S
C812        C816   1.475       .  S
C812        C813   1.405       .  A
C813        C814   1.395       .  A
C813       Br825   1.919       .  S
C814        H817   1.083       .  S
C816        C818   1.400       .  A
C816        C822   1.406       .  A
C818        C819   1.399       .  A
C818        H823   1.084       .  S
C819        C820   1.416       .  A
C819       Br827   1.922       .  S
C820        C821   1.404       .  A
C821        C822   1.398       .  A
C821        H824   1.083       .  S
C822       Br828   1.918       .  S
C829        C830   1.414       .  A
C829        C834   1.407       .  A
C830        C831   1.400       .  A
C830       Br846   1.920       .  S
C831        C832   1.402       .  A
C831        H835   1.084       .  S
C832        C836   1.476       .  S
C832        C833   1.405       .  A
C833        C834   1.395       .  A
C833       Br845   1.920       .  S
C834        H837   1.083       .  S
C836        C838   1.399       .  A
C836        C842   1.408       .  A
C838        C839   1.398       .  A
C838        H843   1.084       .  S
C839        C840   1.416       .  A
C839       Br847   1.922       .  S
C840        C841   1.405       .  A
C841        C842   1.398       .  A
C841        H844   1.083       .  S
C842       Br848   1.920       .  S
O849        C852   1.267       .  A
O849       Cd854   2.472       .  S
C850        O859   1.265       .  A
C850        O855   1.268       .  A
C850       C1637   1.477       .  S
O851        C857   1.267       .  A
O851       Cd854   2.488       .  S
C852        O860   1.264       .  A
C852       C1677   1.480       .  S
C853        O858   1.270       .  A
C853        O856   1.263       .  A
C853       C1628   1.485       .  S
Cd854       O861   2.440       .  S
Cd854       O860   2.422       .  S
Cd854       O859   2.441       .  S
Cd854       O855   2.468       .  S
Cd854       O858   2.474       .  S
Cd854       O856   2.426       .  S
C857        O861   1.264       .  A
C857       C1657   1.480       .  S
O862        C865   1.271       .  A
O862       Cd867   2.475       .  S
C863        O872   1.263       .  A
C863        O868   1.268       .  A
C863       C1597   1.474       .  S
O864        C870   1.268   1_554  A
O864       Cd867   2.490   1_554  S
C865        O873   1.264       .  A
C865       C1668   1.479       .  S
C866        O871   1.271       .  A
C866        O869   1.265       .  A
C866       C1688   1.479       .  S
Cd867       O874   2.437       .  S
Cd867       O873   2.430       .  S
C870        O874   1.264       .  A
C870       C1588   1.488       .  S
O875        C878   1.269       .  A
O875       Cd880   2.474       .  S
C876        O885   1.264       .  A
C876        O881   1.269       .  A
C876       C1497   1.480       .  S
O877        C883   1.270   1_545  A
O877       Cd880   2.477   1_545  S
C878        O886   1.264   1_565  A
C878       C1537   1.474       .  S
C879        O884   1.267       .  A
C879        O882   1.265       .  A
C879       C1517   1.491       .  S
Cd880       O887   2.432       .  S
Cd880       O886   2.426   1_565  S
Cd880       O885   2.433       .  S
Cd880       O881   2.490       .  S
Cd880       O884   2.488   1_565  S
Cd880       O882   2.447   1_565  S
C883        O887   1.264       .  A
C883       C1557   1.486       .  S
O888        C891   1.269       .  A
O888       Cd893   2.478       .  S
C889        O898   1.264       .  A
C889        O894   1.269       .  A
C889       C1608   1.478       .  S
O890        C896   1.270       .  A
O890       Cd893   2.483   1_545  S
C891        O899   1.265   1_565  A
C891       C1568   1.479       .  S
C892        O897   1.271   1_565  A
C892        O895   1.263       .  A
C892       C1548   1.486       .  S
Cd893       O900   2.427   1_565  S
Cd893       O899   2.453   1_565  S
Cd893       O898   2.444       .  S
Cd893       O894   2.490       .  S
Cd893       O897   2.482   1_565  S
Cd893       O895   2.427       .  S
C896        O900   1.263       .  A
C896       C1477   1.485       .  S
O901        C904   1.269       .  A
O901       Cd906   2.486       .  S
C902        O911   1.263       .  A
C902        O907   1.268       .  A
C902       C1417   1.479       .  S
O903        C909   1.268       .  A
O903       Cd906   2.486       .  S
C904        O912   1.264       .  A
C904       C1437   1.484       .  S
C905        O910   1.268       .  A
C905        O908   1.264       .  A
C905       C1457   1.476       .  S
Cd906       O913   2.442       .  S
Cd906       O912   2.437       .  S
Cd906       O911   2.427       .  S
Cd906       O907   2.482       .  S
Cd906       O910   2.469       .  S
Cd906       O908   2.432       .  S
C909        O913   1.264       .  A
C909       C1397   1.481       .  S
O914        C917   1.269       .  A
O914       Cd919   2.485       .  S
C915        O924   1.263       .  A
C915        O920   1.269       .  A
C915       C1388   1.482       .  S
O916        C922   1.270       .  A
C917        O925   1.264       .  A
C917       C1448   1.479       .  S
C918        O923   1.267       .  A
C918        O921   1.265       .  A
C918       C1528   1.491       .  S
Cd919       O925   2.431       .  S
Cd919       O923   2.496       .  S
Cd919       O921   2.455       .  S
C922        O926   1.265       .  A
C922       C1468   1.485       .  S
O927        C930   1.267       .  A
O927       Cd932   2.473       .  S
C928        O937   1.266       .  A
C928        O933   1.270       .  A
C928       C1368   1.475       .  S
O929        C935   1.271       .  A
O929       Cd932   2.496       .  S
C930        O938   1.265       .  A
C930       C1328   1.484       .  S
C931        O936   1.270       .  A
C931        O934   1.264       .  A
C931       C1337   1.472       .  S
Cd932       O939   2.415       .  S
Cd932       O938   2.439       .  S
Cd932       O937   2.437       .  S
Cd932       O933   2.461       .  S
Cd932       O936   2.487       .  S
Cd932       O934   2.417       .  S
C935        O939   1.262       .  A
C935       C1648   1.483       .  S
O940        C943   1.269       .  A
O940       Cd945   2.479       .  S
C941        O950   1.266       .  A
C941        O946   1.268       .  A
C941       C1297   1.482       .  S
O942        C948   1.268       .  A
O942       Cd945   2.480       .  S
C943        O951   1.263       .  A
C943       C1357   1.480       .  S
C944        O949   1.267       .  A
C944        O947   1.265       .  A
C944       C1348   1.485       .  S
Cd945       O952   2.427       .  S
Cd945       O951   2.420       .  S
Cd945       O950   2.445       .  S
Cd945       O946   2.474       .  S
Cd945       O949   2.474       .  S
Cd945       O947   2.435       .  S
C948        O952   1.265       .  A
C948       C1428   1.487       .  S
O953        C956   1.270       .  A
O953       Cd958   2.489       .  S
C954        O963   1.263       .  A
C954        O959   1.269       .  A
C954       C1237   1.487       .  S
O955        C961   1.269       .  A
O955       Cd958   2.484       .  S
C956        O964   1.264       .  A
C956       C1257   1.485       .  S
C957        O962   1.268       .  A
C957        O960   1.263       .  A
C957       C1277   1.475       .  S
Cd958       O965   2.437       .  S
Cd958       O964   2.433       .  S
C961        O965   1.263       .  A
C961       C1308   1.486       .  S
O966        C969   1.269       .  A
O966       Cd971   2.476       .  S
C967        O976   1.265       .  A
C967        O972   1.269       .  A
C967       C1508   1.484       .  S
O968        C974   1.270       .  A
O968       Cd971   2.486       .  S
C969        O977   1.264       .  A
C969       C1268   1.482       .  S
C970        O975   1.270       .  A
C970        O973   1.264       .  A
C970       C1217   1.485       .  S
Cd971       O978   2.414       .  S
Cd971       O977   2.443       .  S
Cd971       O976   2.446       .  S
Cd971       O972   2.479       .  S
Cd971       O975   2.491       .  S
Cd971       O973   2.430       .  S
C974        O978   1.264       .  A
C974       C1288   1.480       .  S
O979        C982   1.270       .  A
O979       Cd984   2.486       .  S
C980        O989   1.265   1_545  A
C980        O985   1.270       .  A
C980       C1208   1.479       .  S
O981        C987   1.271       .  A
O981       Cd984   2.503   1_565  S
C982        O990   1.264       .  A
C982       C1377   1.483       .  S
C983        O988   1.272   1_545  A
C983        O986   1.263       .  A
C983       C1177   1.487       .  S
Cd984       O991   2.432   1_545  S
Cd984       O990   2.432       .  S
Cd984       O989   2.431   1_545  S
Cd984       O985   2.478       .  S
Cd984       O988   2.497   1_545  S
Cd984       O986   2.420       .  S
C987        O991   1.263       .  A
C987       C1228   1.490       .  S
O992        C995   1.269       .  A
O992       Cd997   2.493   1_565  S
C993       O1002   1.264   1_565  A
C993        O998   1.268       .  A
C993       C1197   1.478       .  S
O994       C1000   1.268       .  A
O994       Cd997   2.492       .  S
C995       O1003   1.264       .  A
C995       C1577   1.484       .  S
C996       O1001   1.268       .  A
C996        O999   1.267       .  A
C996       C1157   1.492       .  S
Cd997      O1004   2.438   1_545  S
Cd997      O1003   2.445   1_545  S
Cd997      O1002   2.439       .  S
Cd997       O998   2.501   1_545  S
Cd997      O1001   2.492       .  S
Cd997       O999   2.444       .  S
C1000      O1004   1.263   1_545  A
C1000      C1188   1.482       .  S
O1005      C1008   1.269       .  A
O1005     Cd1010   2.482       .  S
C1006      O1015   1.266       .  A
C1006      O1011   1.270       .  A
C1006      C1488   1.480       .  S
O1007      C1013   1.269       .  A
O1007     Cd1010   2.479       .  S
C1008      O1016   1.262       .  A
C1008      C1148   1.479       .  S
C1009      O1014   1.270       .  A
C1009      O1012   1.264       .  A
C1009      C1117   1.475       .  S
Cd1010     O1017   2.439       .  S
Cd1010     O1016   2.420       .  S
Cd1010     O1015   2.420       .  S
Cd1010     O1011   2.468       .  S
Cd1010     O1014   2.478       .  S
Cd1010     O1012   2.420       .  S
C1013      O1017   1.264       .  A
C1013      C1168   1.485       .  S
O1018      C1021   1.268       .  A
O1018     Cd1023   2.463       .  S
C1019      O1028   1.265       .  A
C1019      O1024   1.266       .  A
C1019      C1108   1.487       .  S
O1020      C1026   1.269       .  A
C1021      O1029   1.265       .  A
C1021      C1137   1.475       .  S
C1022      O1027   1.268       .  A
C1022      O1025   1.266       .  A
C1022      C1317   1.481       .  S
Cd1023     O1029   2.428       .  S
Cd1023     O1027   2.473       .  S
Cd1023     O1025   2.431       .  S
C1026      O1030   1.262       .  A
C1026      C1128   1.475       .  S
O1031      C1034   1.269       .  A
O1031     Cd1036   2.494       .  S
C1032      O1041   1.266       .  A
C1032      O1037   1.268       .  A
C1032      C1248   1.488       .  S
O1033      C1039   1.269       .  A
O1033     Cd1036   2.480       .  S
C1034      O1042   1.263       .  A
C1034      C1077   1.476       .  S
C1035      O1040   1.268       .  A
C1035      O1038   1.263       .  A
C1035      C1057   1.477       .  S
Cd1036     O1043   2.430       .  S
Cd1036     O1042   2.436       .  S
Cd1036     O1041   2.455       .  S
Cd1036     O1037   2.480       .  S
Cd1036     O1040   2.484       .  S
Cd1036     O1038   2.434       .  S
C1039      O1043   1.266       .  A
C1039      C1408   1.483       .  S
O1044      C1047   1.267       .  A
O1044     Cd1049   2.487       .  S
C1045      O1054   1.263       .  A
C1045      O1050   1.270       .  A
C1045      C1088   1.485       .  S
O1046      C1052   1.269       .  A
O1046     Cd1049   2.498       .  S
C1047      O1055   1.266       .  A
C1047      C1097   1.489       .  S
C1048      O1053   1.270       .  A
C1048      O1051   1.262       .  A
C1048      C1068   1.489       .  S
Cd1049     O1056   2.432       .  S
Cd1049     O1055   2.436       .  S
Cd1049     O1054   2.425       .  S
Cd1049     O1050   2.496       .  S
Cd1049     O1053   2.500       .  S
Cd1049     O1051   2.430       .  S
C1052      O1056   1.263       .  A
C1052      C1617   1.485       .  S
C1057      C1058   1.413       .  A
C1057      C1062   1.404       .  A
C1058      C1059   1.399       .  A
C1058     Br1074   1.922       .  S
C1059      C1060   1.402       .  A
C1060      C1061   1.409       .  A
C1061      C1062   1.399       .  A
C1061     Br1073   1.918   1_655  S
C1062      H1065   1.083       .  S
C1064      C1066   1.399       .  A
C1064      C1070   1.408       .  A
C1066      C1067   1.398       .  A
C1066      H1071   1.084   1_455  S
C1067      C1068   1.419       .  A
C1067     Br1075   1.922       .  S
C1068      C1069   1.408       .  A
C1069      C1070   1.402       .  A
C1069      H1072   1.083       .  S
C1077      C1078   1.412       .  A
C1077      C1082   1.404       .  A
C1078      C1079   1.399       .  A
C1078     Br1094   1.921       .  S
C1079      C1080   1.401       .  A
C1079      H1083   1.084       .  S
C1080      C1084   1.477   1_655  S
C1080      C1081   1.407       .  A
C1081      C1082   1.401       .  A
C1081     Br1093   1.917   1_655  S
C1082      H1085   1.083       .  S
C1084      C1086   1.398       .  A
C1084      C1090   1.407       .  A
C1086      C1087   1.397       .  A
C1086      H1091   1.084   1_455  S
C1087      C1088   1.417       .  A
C1087     Br1095   1.922       .  S
C1088      C1089   1.408       .  A
C1089      C1090   1.403       .  A
C1089      H1092   1.083       .  S
C1090     Br1096   1.918       .  S
C1097      C1098   1.418       .  A
C1097      C1102   1.408       .  A
C1098      C1099   1.403       .  A
C1098     Br1114   1.921       .  S
C1099      C1100   1.402       .  A
C1099      H1103   1.084       .  S
C1100      C1104   1.477       .  S
C1100      C1101   1.404       .  A
C1101      C1102   1.394       .  A
C1101     Br1113   1.920       .  S
C1102      H1105   1.083       .  S
C1104      C1106   1.402       .  A
C1104      C1110   1.404       .  A
C1106      C1107   1.401       .  A
C1106      H1111   1.084       .  S
C1107      C1108   1.417       .  A
C1108      C1109   1.409       .  A
C1109      C1110   1.397       .  A
C1109      H1112   1.083       .  S
C1110     Br1116   1.919       .  S
C1117      C1118   1.414       .  A
C1117      C1122   1.404       .  A
C1118      C1119   1.396       .  A
C1118     Br1134   1.921       .  S
C1119      C1120   1.398       .  A
C1119      H1123   1.084       .  S
C1120      C1124   1.471       .  S
C1120      C1121   1.406       .  A
C1121      C1122   1.399       .  A
C1121     Br1133   1.918       .  S
C1122      H1125   1.084       .  S
C1124      C1126   1.398       .  A
C1124      C1130   1.406       .  A
C1126      C1127   1.397       .  A
C1126      H1131   1.084       .  S
C1127      C1128   1.415       .  A
C1127     Br1135   1.922       .  S
C1128      C1129   1.405       .  A
C1129      C1130   1.398       .  A
C1129      H1132   1.083       .  S
C1130     Br1136   1.918       .  S
C1137      C1138   1.412       .  A
C1137      C1142   1.405       .  A
C1138      C1139   1.399       .  A
C1138     Br1154   1.920       .  S
C1139      C1140   1.402       .  A
C1139      H1143   1.084       .  S
C1140      C1144   1.474       .  S
C1140      C1141   1.405       .  A
C1141      C1142   1.396       .  A
C1141     Br1153   1.919       .  S
C1142      H1145   1.084       .  S
C1144      C1146   1.399       .  A
C1144      C1150   1.407       .  A
C1146      C1147   1.397       .  A
C1146      H1151   1.084       .  S
C1147      C1148   1.416       .  A
C1147     Br1155   1.922       .  S
C1148      C1149   1.405       .  A
C1149      C1150   1.398       .  A
C1149      H1152   1.083       .  S
C1150     Br1156   1.919       .  S
C1157      C1158   1.419       .  A
C1157      C1162   1.409       .  A
C1158      C1159   1.404       .  A
C1158     Br1174   1.920       .  S
C1159      C1160   1.402       .  A
C1159      H1163   1.084       .  S
C1160      C1164   1.480       .  S
C1160      C1161   1.404       .  A
C1161      C1162   1.397       .  A
C1161     Br1173   1.920       .  S
C1162      H1165   1.083       .  S
C1164      C1166   1.401       .  A
C1164      C1170   1.406       .  A
C1166      C1167   1.399       .  A
C1166      H1171   1.084       .  S
C1167      C1168   1.417       .  A
C1167     Br1175   1.923       .  S
C1168      C1169   1.407       .  A
C1169      C1170   1.400       .  A
C1169      H1172   1.083       .  S
C1170     Br1176   1.917       .  S
C1177      C1178   1.419       .  A
C1177      C1182   1.405   1_545  A
C1178      C1179   1.399       .  A
C1178     Br1194   1.923       .  S
C1179      C1180   1.401       .  A
C1179      H1183   1.084   1_655  S
C1180      C1181   1.410   1_545  A
C1181      C1182   1.400       .  A
C1182      H1185   1.083       .  S
C1184      C1186   1.402   1_545  A
C1184      C1190   1.411       .  A
C1186      C1187   1.397       .  A
C1187      C1188   1.415   1_565  A
C1187     Br1195   1.922       .  S
C1188      C1189   1.405       .  A
C1189      C1190   1.401       .  A
C1189      H1192   1.083       .  S
C1190     Br1196   1.920       .  S
C1197      C1198   1.412   1_565  A
C1197      C1202   1.405       .  A
C1198      C1199   1.399       .  A
C1198     Br1214   1.921       .  S
C1199      C1200   1.401   1_545  A
C1199      H1203   1.083       .  S
C1200      C1204   1.479   1_455  S
C1200      C1201   1.408       .  A
C1201      C1202   1.403       .  A
C1201     Br1213   1.918   1_455  S
C1202      H1205   1.083       .  S
C1204      C1206   1.400       .  A
C1204      C1210   1.408   1_565  A
C1206      C1207   1.399       .  A
C1206      H1211   1.084   1_655  S
C1207      C1208   1.414   1_565  A
C1207     Br1215   1.921       .  S
C1208      C1209   1.404       .  A
C1209      C1210   1.401       .  A
C1209      H1212   1.084       .  S
C1210     Br1216   1.918       .  S
C1217      C1218   1.417       .  A
C1217      C1222   1.406       .  A
C1218      C1219   1.398       .  A
C1218     Br1234   1.922       .  S
C1219      C1220   1.400       .  A
C1219      H1223   1.084       .  S
C1220      C1224   1.484       .  S
C1220      C1221   1.410       .  A
C1221      C1222   1.402       .  A
C1221     Br1233   1.919       .  S
C1222      H1225   1.083       .  S
C1224      C1226   1.400       .  A
C1224      C1230   1.409       .  A
C1226      C1227   1.399       .  A
C1226      H1231   1.084       .  S
C1227      C1228   1.420       .  A
C1227     Br1235   1.922       .  S
C1228      C1229   1.407       .  A
C1229      C1230   1.402       .  A
C1229      H1232   1.083       .  S
C1230     Br1236   1.919       .  S
C1237      C1238   1.417       .  A
C1237      C1242   1.406       .  A
C1238      C1239   1.401       .  A
C1238     Br1254   1.922       .  S
C1239      C1240   1.400       .  A
C1239      H1243   1.084       .  S
C1240      C1244   1.480       .  S
C1240      C1241   1.407       .  A
C1241      C1242   1.401       .  A
C1241     Br1253   1.919       .  S
C1242      H1245   1.083   1_556  S
C1244      C1246   1.401       .  A
C1244      C1250   1.406       .  A
C1246      C1247   1.403       .  A
C1246      H1251   1.084       .  S
C1247      C1248   1.417       .  A
C1247     Br1255   1.920       .  S
C1248      C1249   1.408       .  A
C1249      C1250   1.399       .  A
C1249      H1252   1.083       .  S
C1250     Br1256   1.920       .  S
C1257      C1258   1.418       .  A
C1257      C1262   1.407       .  A
C1258      C1259   1.399       .  A
C1258     Br1274   1.922       .  S
C1259      C1260   1.399       .  A
C1259      H1263   1.084       .  S
C1260      C1264   1.477       .  S
C1260      C1261   1.406       .  A
C1261      C1262   1.401       .  A
C1261     Br1273   1.918       .  S
C1262      H1265   1.083       .  S
C1264      C1266   1.400       .  A
C1264      C1270   1.406       .  A
C1266      C1267   1.400       .  A
C1266      H1271   1.084       .  S
C1267      C1268   1.416       .  A
C1267     Br1275   1.922       .  S
C1268      C1269   1.405       .  A
C1269      C1270   1.399       .  A
C1269      H1272   1.083       .  S
C1270     Br1276   1.918       .  S
C1277      C1278   1.412       .  A
C1277      C1282   1.404       .  A
C1278      C1279   1.398       .  A
C1278     Br1294   1.920       .  S
C1279      C1280   1.400       .  A
C1279      H1283   1.084       .  S
C1280      C1284   1.473       .  S
C1280      C1281   1.406       .  A
C1281      C1282   1.399       .  A
C1281     Br1293   1.918       .  S
C1282      H1285   1.084       .  S
C1284      C1286   1.402       .  A
C1284      C1290   1.402       .  A
C1286      C1287   1.401       .  A
C1286      H1291   1.084       .  S
C1287      C1288   1.413       .  A
C1287     Br1295   1.920       .  S
C1288      C1289   1.408       .  A
C1289      C1290   1.395       .  A
C1289      H1292   1.084       .  S
C1290     Br1296   1.918       .  S
C1297      C1298   1.414       .  A
C1297      C1302   1.407       .  A
C1298      C1299   1.401       .  A
C1298     Br1314   1.920       .  S
C1299      C1300   1.402       .  A
C1299      H1303   1.084       .  S
C1300      C1304   1.478       .  S
C1300      C1301   1.406       .  A
C1301      C1302   1.398       .  A
C1301     Br1313   1.919       .  S
C1302      H1305   1.083       .  S
C1304      C1306   1.399       .  A
C1304      C1310   1.406       .  A
C1306      C1307   1.399       .  A
C1306      H1311   1.084       .  S
C1307      C1308   1.418       .  A
C1307     Br1315   1.922       .  S
C1308      C1309   1.407       .  A
C1309      C1310   1.400       .  A
C1309      H1312   1.083       .  S
C1310     Br1316   1.918       .  S
C1317      C1318   1.414       .  A
C1317      C1322   1.407       .  A
C1318      C1319   1.401       .  A
C1319      C1320   1.401       .  A
C1319      H1323   1.084       .  S
C1320      C1324   1.473       .  S
C1320      C1321   1.403       .  A
C1321      C1322   1.396       .  A
C1321     Br1333   1.919       .  S
C1322      H1325   1.083       .  S
C1324      C1326   1.400       .  A
C1324      C1330   1.403       .  A
C1326      C1327   1.401       .  A
C1326      H1331   1.084       .  S
C1327      C1328   1.417       .  A
C1327     Br1335   1.920       .  S
C1328      C1329   1.408       .  A
C1329      C1330   1.396       .  A
C1329      H1332   1.083       .  S
C1330     Br1336   1.919       .  S
C1337      C1338   1.410       .  A
C1337      C1342   1.404       .  A
C1338      C1339   1.401   1_556  A
C1338     Br1354   1.918       .  S
C1339      C1340   1.403   1_554  A
C1340      C1341   1.405       .  A
C1341      C1342   1.395       .  A
C1341     Br1353   1.919       .  S
C1342      H1345   1.084       .  S
C1344      C1346   1.401       .  A
C1344      C1350   1.403       .  A
C1346      C1347   1.400       .  A
C1346      H1351   1.084       .  S
C1347      C1348   1.416       .  A
C1347     Br1355   1.921       .  S
C1348      C1349   1.409       .  A
C1349      C1350   1.396       .  A
C1349      H1352   1.083       .  S
C1357      C1358   1.416       .  A
C1357      C1362   1.405       .  A
C1358      C1359   1.397       .  A
C1358     Br1374   1.923       .  S
C1359      C1360   1.400       .  A
C1359      H1363   1.084       .  S
C1360      C1364   1.478       .  S
C1360      C1361   1.408       .  A
C1361      C1362   1.400       .  A
C1361     Br1373   1.918       .  S
C1362      H1365   1.083       .  S
C1364      C1366   1.402       .  A
C1364      C1370   1.408       .  A
C1366      C1367   1.399       .  A
C1366      H1371   1.084       .  S
C1367      C1368   1.412       .  A
C1367     Br1375   1.920       .  S
C1368      C1369   1.403       .  A
C1369      C1370   1.398       .  A
C1369      H1372   1.084       .  S
C1370     Br1376   1.919       .  S
C1377      C1378   1.415       .  A
C1377      C1382   1.407       .  A
C1378      C1379   1.398       .  A
C1378     Br1394   1.922       .  S
C1379      C1380   1.401       .  A
C1379      H1383   1.084       .  S
C1380      C1384   1.480       .  S
C1380      C1381   1.407       .  A
C1381      C1382   1.402       .  A
C1381     Br1393   1.918       .  S
C1382      H1385   1.083       .  S
C1384      C1386   1.401       .  A
C1384      C1390   1.407       .  A
C1386      C1387   1.401       .  A
C1386      H1391   1.083       .  S
C1387      C1388   1.416       .  A
C1387     Br1395   1.922       .  S
C1388      C1389   1.404       .  A
C1389      C1390   1.399       .  A
C1397      C1398   1.414       .  A
C1397      C1402   1.407       .  A
C1398      C1399   1.397       .  A
C1398     Br1414   1.921       .  S
C1399      C1400   1.399       .  A
C1399      H1403   1.084       .  S
C1400      C1404   1.474       .  S
C1400      C1401   1.405       .  A
C1401      C1402   1.401       .  A
C1401     Br1413   1.917       .  S
C1402      H1405   1.083       .  S
C1404      C1406   1.402       .  A
C1404      C1410   1.403       .  A
C1406      C1407   1.401       .  A
C1406      H1411   1.084       .  S
C1407      C1408   1.414       .  A
C1407     Br1415   1.919       .  S
C1408      C1409   1.408       .  A
C1409      C1410   1.396       .  A
C1409      H1412   1.083       .  S
C1410     Br1416   1.918       .  S
C1417      C1418   1.415       .  A
C1417      C1422   1.407       .  A
C1418      C1419   1.396       .  A
C1418     Br1434   1.922       .  S
C1419      C1420   1.399       .  A
C1419      H1423   1.084       .  S
C1420      C1424   1.475       .  S
C1420      C1421   1.406       .  A
C1421      C1422   1.401       .  A
C1421     Br1433   1.918       .  S
C1422      H1425   1.083       .  S
C1424      C1426   1.401       .  A
C1424      C1430   1.404       .  A
C1426      C1427   1.402       .  A
C1426      H1431   1.084       .  S
C1427      C1428   1.418       .  A
C1427     Br1435   1.920       .  S
C1428      C1429   1.409       .  A
C1429      C1430   1.395       .  A
C1429      H1432   1.083       .  S
C1430     Br1436   1.920       .  S
C1437      C1438   1.416       .  A
C1437      C1442   1.406       .  A
C1438      C1439   1.399       .  A
C1438     Br1454   1.921       .  S
C1439      C1440   1.400       .  A
C1439      H1443   1.084       .  S
C1440      C1444   1.480       .  S
C1440      C1441   1.408       .  A
C1441      C1442   1.400       .  A
C1441     Br1453   1.920       .  S
C1442      H1445   1.083       .  S
C1444      C1446   1.401       .  A
C1444      C1450   1.409       .  A
C1446      C1447   1.398       .  A
C1446      H1451   1.084       .  S
C1447      C1448   1.414       .  A
C1447     Br1455   1.922       .  S
C1448      C1449   1.404       .  A
C1449      C1450   1.400       .  A
C1449      H1452   1.084       .  S
C1450     Br1456   1.919       .  S
C1457      C1458   1.413       .  A
C1457      C1462   1.404       .  A
C1458      C1459   1.397       .  A
C1458     Br1474   1.922       .  S
C1459      C1460   1.402       .  A
C1459      H1463   1.084       .  S
C1460      C1464   1.479       .  S
C1460      C1461   1.410       .  A
C1461      C1462   1.398       .  A
C1461     Br1473   1.920       .  S
C1462      H1465   1.084       .  S
C1464      C1466   1.403       .  A
C1464      C1470   1.406       .  A
C1466      C1467   1.400       .  A
C1466      H1471   1.084       .  S
C1467      C1468   1.415       .  A
C1467     Br1475   1.920       .  S
C1468      C1469   1.409       .  A
C1469      C1470   1.396       .  A
C1469      H1472   1.083       .  S
C1470     Br1476   1.921       .  S
C1477      C1478   1.419       .  A
C1477      C1482   1.408       .  A
C1478      C1479   1.397       .  A
C1478     Br1494   1.923       .  S
C1479      C1480   1.398       .  A
C1479      H1483   1.084       .  S
C1480      C1484   1.474       .  S
C1480      C1481   1.405       .  A
C1481      C1482   1.400       .  A
C1481     Br1493   1.918       .  S
C1482      H1485   1.083       .  S
C1484      C1486   1.402       .  A
C1484      C1490   1.404       .  A
C1486      C1487   1.399       .  A
C1486      H1491   1.084       .  S
C1487      C1488   1.413       .  A
C1487     Br1495   1.920       .  S
C1488      C1489   1.408       .  A
C1489      C1490   1.396       .  A
C1489      H1492   1.084       .  S
C1490     Br1496   1.919       .  S
C1497      C1498   1.414       .  A
C1497      C1502   1.404       .  A
C1498      C1499   1.399       .  A
C1498     Br1514   1.922       .  S
C1499      C1500   1.401       .  A
C1499      H1503   1.084       .  S
C1500      C1504   1.480       .  S
C1500      C1501   1.408       .  A
C1501      C1502   1.401       .  A
C1501     Br1513   1.918       .  S
C1502      H1505   1.083       .  S
C1504      C1506   1.401       .  A
C1504      C1510   1.407       .  A
C1506      C1507   1.400       .  A
C1506      H1511   1.084       .  S
C1507      C1508   1.415       .  A
C1507     Br1515   1.922       .  S
C1508      C1509   1.406       .  A
C1509      C1510   1.400       .  A
C1509      H1512   1.083       .  S
C1510     Br1516   1.917       .  S
C1517      C1518   1.418       .  A
C1517      C1522   1.410       .  A
C1518      C1519   1.403       .  A
C1518     Br1534   1.921       .  S
C1519      C1520   1.402       .  A
C1519      H1523   1.084       .  S
C1520      C1524   1.481       .  S
C1520      C1521   1.405       .  A
C1521      C1522   1.398       .  A
C1521     Br1533   1.919       .  S
C1522      H1525   1.083       .  S
C1524      C1526   1.402       .  A
C1524      C1530   1.405       .  A
C1526      C1527   1.403       .  A
C1526      H1531   1.084       .  S
C1527      C1528   1.417       .  A
C1528      C1529   1.409       .  A
C1529      C1530   1.399       .  A
C1529      H1532   1.083       .  S
C1530     Br1536   1.919       .  S
C1537      C1538   1.412       .  A
C1537      C1542   1.402       .  A
C1538      C1539   1.397       .  A
C1538     Br1554   1.922   1_565  S
C1539      C1540   1.402       .  A
C1539      H1543   1.084   1_565  S
C1540      C1541   1.410       .  A
C1541      C1542   1.399       .  A
C1542      H1545   1.084       .  S
C1544      C1546   1.401       .  A
C1544      C1550   1.409   1_565  A
C1546      C1547   1.398       .  A
C1547      C1548   1.418       .  A
C1547     Br1555   1.923       .  S
C1548      C1549   1.406   1_565  A
C1549      C1550   1.399       .  A
C1549      H1552   1.083       .  S
C1550     Br1556   1.920       .  S
C1557      C1558   1.419       .  A
C1557      C1562   1.407   1_565  A
C1558      C1559   1.398       .  A
C1558     Br1574   1.923       .  S
C1559      C1560   1.399       .  A
C1559      H1563   1.084       .  S
C1560      C1564   1.477       .  S
C1560      C1561   1.406   1_565  A
C1561      C1562   1.399       .  A
C1561     Br1573   1.918       .  S
C1562      H1565   1.083       .  S
C1564      C1566   1.401   1_565  A
C1564      C1570   1.407       .  A
C1566      C1567   1.400       .  A
C1566      H1571   1.084       .  S
C1567      C1568   1.413   1_545  A
C1567     Br1575   1.920       .  S
C1568      C1569   1.404       .  A
C1569      C1570   1.399       .  A
C1569      H1572   1.083       .  S
C1570     Br1576   1.918       .  S
C1577      C1578   1.416       .  A
C1577      C1582   1.407       .  A
C1578      C1579   1.400       .  A
C1578     Br1594   1.922       .  S
C1579      C1580   1.400       .  A
C1579      H1583   1.083       .  S
C1580      C1584   1.478       .  S
C1580      C1581   1.406       .  A
C1581      C1582   1.401       .  A
C1581     Br1593   1.918       .  S
C1582      H1585   1.083       .  S
C1584      C1586   1.402       .  A
C1584      C1590   1.403       .  A
C1586      C1587   1.403       .  A
C1586      H1591   1.084       .  S
C1587      C1588   1.416       .  A
C1587     Br1595   1.920   1_556  S
C1588      C1589   1.409       .  A
C1589      C1590   1.397       .  A
C1589      H1592   1.083       .  S
C1590     Br1596   1.919       .  S
C1597      C1598   1.409       .  A
C1597      C1602   1.402       .  A
C1598      C1599   1.399       .  A
C1598     Br1614   1.920       .  S
C1599      C1600   1.404       .  A
C1599      H1603   1.083       .  S
C1600      C1604   1.487       .  S
C1600      C1601   1.413       .  A
C1601      C1602   1.401       .  A
C1601     Br1613   1.920       .  S
C1602      H1605   1.083       .  S
C1604      C1606   1.404       .  A
C1604      C1610   1.412       .  A
C1606      C1607   1.399       .  A
C1606      H1611   1.083       .  S
C1607      C1608   1.411       .  A
C1607     Br1615   1.920       .  S
C1608      C1609   1.403       .  A
C1609      C1610   1.401       .  A
C1609      H1612   1.083       .  S
C1610     Br1616   1.920       .  S
C1617      C1618   1.416       .  A
C1617      C1622   1.407       .  A
C1618      C1619   1.397       .  A
C1618     Br1634   1.922       .  S
C1619      C1620   1.400       .  A
C1619      H1623   1.084       .  S
C1620      C1624   1.481       .  S
C1620      C1621   1.409       .  A
C1621      C1622   1.402       .  A
C1621     Br1633   1.920       .  S
C1622      H1625   1.083       .  S
C1624      C1626   1.401       .  A
C1624      C1630   1.408       .  A
C1626      C1627   1.398       .  A
C1626      H1631   1.084       .  S
C1627      C1628   1.418       .  A
C1627     Br1635   1.923       .  S
C1628      C1629   1.406       .  A
C1629      C1630   1.399       .  A
C1629      H1632   1.083       .  S
C1630     Br1636   1.919       .  S
C1637      C1638   1.414       .  A
C1637      C1642   1.405       .  A
C1638      C1639   1.399       .  A
C1638     Br1654   1.922       .  S
C1639      C1640   1.401       .  A
C1639      H1643   1.084       .  S
C1640      C1644   1.474       .  S
C1640      C1641   1.405       .  A
C1641      C1642   1.398       .  A
C1641     Br1653   1.918       .  S
C1642      H1645   1.083       .  S
C1644      C1646   1.398       .  A
C1644      C1650   1.406       .  A
C1646      C1647   1.398       .  A
C1646      H1651   1.084       .  S
C1647      C1648   1.419       .  A
C1647     Br1655   1.923       .  S
C1648      C1649   1.406       .  A
C1649      C1650   1.400       .  A
C1649      H1652   1.083       .  S
C1650     Br1656   1.918       .  S
C1657      C1658   1.414       .  A
C1657      C1662   1.405       .  A
C1658      C1659   1.402       .  A
C1658     Br1674   1.919       .  S
C1659      C1660   1.402       .  A
C1659      H1663   1.084       .  S
C1660      C1664   1.475       .  S
C1660      C1661   1.405       .  A
C1661      C1662   1.396       .  A
C1661     Br1673   1.919       .  S
C1662      H1665   1.083       .  S
C1664      C1666   1.400       .  A
C1664      C1670   1.406       .  A
C1666      C1667   1.399       .  A
C1666      H1671   1.084       .  S
C1667      C1668   1.416       .  A
C1667     Br1675   1.922       .  S
C1668      C1669   1.404       .  A
C1669      C1670   1.398       .  A
C1669      H1672   1.083       .  S
C1670     Br1676   1.918       .  S
C1677      C1678   1.414       .  A
C1677      C1682   1.407       .  A
C1678      C1679   1.400       .  A
C1678     Br1694   1.920       .  S
C1679      C1680   1.402       .  A
C1679      H1683   1.084       .  S
C1680      C1684   1.476       .  S
C1680      C1681   1.405       .  A
C1681      C1682   1.395       .  A
C1681     Br1693   1.920       .  S
C1682      H1685   1.083       .  S
C1684      C1686   1.399       .  A
C1684      C1690   1.408       .  A
C1686      C1687   1.398       .  A
C1686      H1691   1.084       .  S
C1687      C1688   1.416       .  A
C1687     Br1695   1.922       .  S
C1688      C1689   1.405       .  A
C1689      C1690   1.398       .  A
C1689      H1692   1.083       .  S
C1690     Br1696   1.919       .  S
