geometry optimzed in LAMMPS
_audit_creation_date              2020-12-01 
_audit_creation_method            'lammps2cif' 
_symmetry_space_group_name_H-M    'P1' 
_symmetry_Int_Tables_number       1 
_symmetry_cell_setting            triclinic 
loop_ 
_symmetry_equiv_pos_as_xyz 
  x,y,z 
_cell_length_a                    34.48459888 
_cell_length_b                    34.468468522534046 
_cell_length_c                    25.416702034761553 
_cell_angle_alpha                 90.65758664135866 
_cell_angle_beta                  91.32089413785387 
_cell_angle_gamma                 90.01025902665322 
loop_ 
_atom_site_label 
_atom_site_type_symbol 
_atom_site_fract_x 
_atom_site_fract_y 
_atom_site_fract_z 
_atom_site_charge 
C1          C  0.25368663  0.24468073  0.75106888    -0.01900
O2          O  0.14821835  0.05703200  0.49409116    -0.74800
O3          O  0.19663179  0.10212134  0.49698583    -0.53700
C4          C  0.16087370  0.09193032  0.49472425     0.79000
O5          O  0.25431192  0.42465595  0.64679595    -0.59400
O6          O  0.26011859  0.38175447  0.57823773    -0.52400
C7          C  0.25792269  0.38968482  0.62746756     0.71000
O8          O  0.25065665  0.06305623  0.64770367    -0.73900
O9          O  0.25288532  0.10420339  0.57831457    -0.52700
C10         C  0.25044844  0.09772209  0.62751413     0.77000
O11         O  0.14854205  0.42720945  0.48838097    -0.59100
O12         O  0.19706440  0.38250111  0.49597014    -0.52200
C13         C  0.16133474  0.39239500  0.49059677     0.73600
Zr14       Zr  0.17522324  0.49196451  0.49310015     2.54700
O15         O  0.12108807  0.48993436  0.55282870    -0.79600
O16         O  0.13061519  0.49197099  0.41729843    -0.93000
Zr17       Zr  0.25254712  0.49341818  0.61387792     2.64700
O18         O  0.20411140  0.99188848  0.67891396    -0.98000
O19         O  0.30081937  0.49499834  0.68528414    -0.80100
O20         O  0.21426120  0.03032408  0.55571790    -0.83400
O21         O  0.21346857  0.45559896  0.55378938    -2.18100
O22         O  0.25761934  0.42376347  0.35237015    -0.66800
O23         O  0.25372484  0.38141504  0.42059574    -0.51400
C24         C  0.25493814  0.38894414  0.37142855     0.72000
O25         O  0.36424240  0.05770577  0.49988280    -0.59700
O26         O  0.31570231  0.10252805  0.50329784    -0.51700
C27         C  0.35144563  0.09253759  0.50093310     0.73800
O28         O  0.36514281  0.42901272  0.50488760    -0.71100
O29         O  0.31698572  0.38374178  0.49832487    -0.49800
C30         C  0.35275654  0.39406913  0.50088289     0.75200
O31         O  0.26207344  0.06219817  0.35406838    -0.66400
O32         O  0.25933523  0.10396311  0.42398682    -0.53600
C33         C  0.26205880  0.09703028  0.37469300     0.73500
Zr34       Zr  0.25923084  0.49260916  0.38691489     2.77500
O35         O  0.31233075  0.49134581  0.32540260    -0.97200
O36         O  0.21000241  0.49538208  0.31681024    -0.78000
Zr37       Zr  0.33667253  0.49297065  0.50797612     2.70100
O38         O  0.39316867  0.49109997  0.45246531    -0.79200
O39         O  0.37807669  0.49544184  0.58677329    -0.98300
Zr40       Zr  0.25623844  0.06536902  0.50080328     2.21500
Zr41       Zr  0.25660633  0.41972813  0.49975364     2.11100
O42         O  0.29884806  0.45605166  0.44627460    -2.47000
O43         O  0.29854937  0.03013183  0.44565595    -0.79000
O44         O  0.21703833  0.45514904  0.43934799    -0.71200
O45         O  0.29692266  0.03050355  0.56041041    -2.32200
O46         O  0.21566288  0.02985616  0.44065770    -2.28400
O47         O  0.29550956  0.45588638  0.56124543    -0.73000
H48         H  0.19716099  0.43832770  0.57319506     0.79000
H49         H  0.31246862  0.04795514  0.58222072     0.80100
H50         H  0.31530620  0.43917268  0.42599350     0.82300
H51         H  0.20009132  0.04692533  0.41892715     0.79900
H52         H  0.31831228  0.97122413  0.68057406     0.43000
H53         H  0.37698920  0.46890465  0.60114995     0.41900
H54         H  0.37864352  0.98472072  0.40962485     0.41600
H55         H  0.33504131  0.48248969  0.34654184     0.39500
H56         H  0.18966498  0.47705568  0.32770956     0.42700
H57         H  0.13136740  0.01084053  0.40342356     0.37500
H58         H  0.14137217  0.00710513  0.59521825     0.43600
H59         H  0.18031279  0.47341198  0.65908345     0.40000
H60         H  0.30639203  0.46939840  0.30109829     0.44900
H61         H  0.10484368  0.48678079  0.43214805     0.43600
H62         H  0.21075685  0.47406026  0.70561780     0.43800
H63         H  0.40468921  0.49783414  0.57333774     0.44100
N64         N  0.44808134  0.24270763  0.48817983    -0.36100
N65         N  0.00605842  0.30204954  0.48179989    -0.56600
N66         N  0.06428742  0.24212975  0.48064010    -0.36100
N67         N  0.00602607  0.18243959  0.48375932    -0.56600
C68         C  0.42606043  0.27419345  0.47811131     0.27500
C69         C  0.42575739  0.21128190  0.47790982     0.27500
C70         C  0.08553150  0.27317493  0.46728128     0.27500
C71         C  0.08560484  0.21036000  0.46998794     0.27500
C72         C  0.47629996  0.32443416  0.49480356     0.36100
C73         C  0.03791127  0.32428438  0.48923765     0.36100
C74         C  0.47498256  0.16073612  0.49719006     0.36100
C75         C  0.03762646  0.16070699  0.49448946     0.36100
C76         C  0.38928830  0.26273274  0.46092053    -0.21400
C77         C  0.38912222  0.22287237  0.46064083    -0.21400
C78         C  0.12065165  0.26104796  0.44719240    -0.21300
C79         C  0.12071783  0.22122393  0.44896261    -0.21300
C80         C  0.48882467  0.36126275  0.50964407    -0.22400
C81         C  0.02754278  0.36134484  0.50537415    -0.22400
C82         C  0.48666580  0.12433382  0.51400063    -0.22400
C83         C  0.02672025  0.12446860  0.51218566    -0.22400
C84         C  0.43733280  0.31265266  0.48919573    -0.17800
C85         C  0.43636005  0.17293615  0.48961526    -0.17800
C86         C  0.07575414  0.17248188  0.48441332    -0.17800
C87         C  0.07586032  0.31183104  0.47896622    -0.17800
H88         H  0.36485565  0.28115890  0.45092880     0.15200
H89         H  0.36449388  0.20455450  0.45050389     0.15200
H90         H  0.14427585  0.27905706  0.43434802     0.15200
H91         H  0.14438534  0.20249085  0.43768289     0.15200
H92         H  0.47116377  0.38578835  0.52099029     0.13400
H93         H  0.04655822  0.38576352  0.51359143     0.13400
H94         H  0.46840400  0.10036316  0.52507928     0.13400
H95         H  0.04548696  0.10053329  0.52297957     0.13400
H96         H  0.47456314  0.24279644  0.50851605     0.26700
H97         H  0.03969005  0.24277457  0.50347520     0.26700
C98         C  0.25982886  0.24135424  0.25000419    -0.01900
N99         N  0.31677952  0.49613529  0.01454516    -0.36100
N100        N  0.25742926  0.43689722  0.01511534    -0.56600
N101        N  0.19842095  0.49609407  0.02128383    -0.36100
N102        N  0.25795151  0.05485702  0.01121415    -0.56600
C103        C  0.33780109  0.46438868  0.00217276     0.27500
C104        C  0.33769277  0.02636253  0.99726561     0.27500
C105        C  0.17676079  0.46472427  0.00773935     0.27500
C106        C  0.17762008  0.02726776  0.00243200     0.27500
C107        C  0.28886263  0.41434066  0.02277316     0.36100
C108        C  0.22650575  0.41439476  0.02461507     0.36100
C109        C  0.28950959  0.07759849  0.01657454     0.36100
C110        C  0.22724239  0.07785482  0.02020133     0.36100
C111        C  0.37282853  0.47566287  0.98137283    -0.21400
C112        C  0.37215756  0.01361031  0.97592254    -0.21400
C113        C  0.14071138  0.47653789  0.98867793    -0.21300
C114        C  0.14211990  0.01520259  0.98136324    -0.21300
C115        C  0.27790853  0.37725308  0.03706142    -0.22400
C116        C  0.23822582  0.37729114  0.03821157    -0.22400
C117        C  0.27893166  0.11534497  0.02927831    -0.22400
C118        C  0.23926695  0.11549473  0.03168622    -0.22400
C119        C  0.32683326  0.42575248  0.01179109    -0.17800
C120        C  0.32694525  0.06554207  0.00374891    -0.17800
C121        C  0.18871130  0.06617662  0.01134722    -0.17800
C122        C  0.18799461  0.42590834  0.01555838    -0.17800
H123        H  0.39613330  0.45707998  0.96844629     0.15200
H124        H  0.39486263  0.03118152  0.95964511     0.15200
H125        H  0.11681685  0.45829351  0.97532574     0.15200
H126        H  0.11850148  0.03329671  0.96732034     0.15200
H127        H  0.29649173  0.35253987  0.04465448     0.13400
H128        H  0.22007467  0.35265190  0.04687654     0.13400
H129        H  0.29769796  0.14033532  0.03461548     0.13400
H130        H  0.22131733  0.14065347  0.03906319     0.13400
H131        H  0.29166191  0.49636194  0.03631190     0.26700
H132        H  0.22461667  0.49585065  0.04237933     0.26700
O133        O  0.07593280  0.24493162  0.85567089    -0.74800
O134        O  0.11763420  0.24462141  0.92660603    -0.53700
C135        C  0.11070091  0.24420134  0.87687359     0.79000
O136        O  0.44321015  0.35397229  0.00618068    -0.59400
O137        O  0.39821597  0.30546284  0.00206343    -0.52400
C138        C  0.40835453  0.34126692  0.00492185     0.71000
O139        O  0.07081593  0.35441713  0.00740972    -0.73900
O140        O  0.11575469  0.30593900  0.00580160    -0.54500
C141        C  0.10567396  0.34178550  0.00728930     0.77000
O142        O  0.43857344  0.24621028  0.85107094    -0.59100
O143        O  0.39614131  0.24966000  0.91871897    -0.52200
C144        C  0.40367061  0.24872074  0.86968889     0.73600
Zr145      Zr  0.00731646  0.24646820  0.88768338     2.54700
O146        O  0.00779082  0.30128731  0.82825576    -0.79600
O147        O  0.51013789  0.19637833  0.81912387    -0.93000
Zr148      Zr  0.00700598  0.32587810  0.00460451     2.64700
O149        O  0.00590369  0.37464277  0.93599127    -0.98000
O150        O  0.00820630  0.37470387  0.07459675    -0.80100
O151        O  0.04418753  0.28715685  0.94678747    -0.83400
O152        O  0.47047063  0.28731225  0.94331599    -2.18100
O153        O  0.44294303  0.13631393  0.99079347    -0.66800
O154        O  0.39824226  0.18511869  0.99263424    -0.51400
C155        C  0.40818143  0.14923298  0.99081710     0.72000
O156        O  0.07489927  0.24262860  0.15160869    -0.59700
O157        O  0.11709819  0.24765208  0.08403339    -0.51700
C158        C  0.10966687  0.24563413  0.13302079     0.73800
O159        O  0.43700495  0.24091077  0.14448374    -0.71100
O160        O  0.39529722  0.24410484  0.07378539    -0.49800
C161        C  0.40221983  0.24170828  0.12332110     0.75200
O162        O  0.07178181  0.13717659  0.00095411    -0.66400
O163        O  0.11647857  0.18596468  0.00663528    -0.53600
C164        C  0.10654683  0.15009026  0.00449530     0.73500
Zr165      Zr  0.00725424  0.16411693  0.99776334     2.77500
O166        O  0.00719630  0.11368913  0.06422574    -0.97200
O167        O  0.00873839  0.11594156  0.92706966    -0.78000
Zr168      Zr  0.00644410  0.24303148  0.11465041     2.70100
O169        O  0.00627116  0.18935750  0.17601053    -0.79200
O170        O  0.00773548  0.29044130  0.18648474    -0.98300
Zr171      Zr  0.07952311  0.24556749  0.00400598     2.21500
Zr172      Zr  0.43449521  0.24539242  0.99768741     2.11100
O173        O  0.46955344  0.20277750  0.05431845    -2.47000
O174        O  0.04403712  0.20312580  0.05810289    -0.79000
O175        O  0.47005624  0.20461181  0.94013521    -0.71200
O176        O  0.04337719  0.28548466  0.06186112    -2.32200
O177        O  0.04420803  0.20479766  0.94375931    -2.28400
O178        O  0.47000959  0.28551561  0.05817158    -0.73000
H179        H  0.45357444  0.30367007  0.92246245     0.79000
H180        H  0.06020874  0.30130463  0.08413213     0.80100
H181        H  0.45228392  0.18646295  0.07357613     0.82300
H182        H  0.06147484  0.18907374  0.92309156     0.79900
H183        H  0.00939303  0.35960880  0.10749483     0.43000
H184        H  0.52745053  0.30641235  0.18120202     0.41900
H185        H  0.00805845  0.20189907  0.21122538     0.41600
H186        H  0.47895681  0.11529884  0.07866127     0.39500
H187        H  0.48959256  0.12545350  0.89953354     0.42700
H188        H  0.02610194  0.17986774  0.82558626     0.37500
H189        H  0.01934191  0.29091802  0.79568974     0.43600
H190        H  0.50930956  0.39873976  0.95095620     0.40000
H191        H  0.99597307  0.09059918  0.04599481     0.44900
H192        H  0.52212400  0.20924861  0.78893343     0.43600
H193        H  0.02311269  0.36407256  0.90865081     0.43800
H194        H  0.99415291  0.27760213  0.21541191     0.44100
C195        C  0.37845344  0.12076082  0.99091824    -0.12700
C196        C  0.35527751  0.09519928  0.99529306    -0.14300
C197        C  0.13537590  0.37043262  0.00945976    -0.12700
C198        C  0.15894307  0.39600163  0.01203088    -0.14300
C199        C  0.37875588  0.36987674  0.00661079    -0.12700
C200        C  0.35557181  0.39571119  0.00841559    -0.14300
C201        C  0.13629373  0.12163458  0.00632093    -0.12700
C202        C  0.15970174  0.09599485  0.00826362    -0.14300
C203        C  0.33396134  0.24305757  0.24032430    -0.12800
C204        C  0.29673315  0.23971049  0.21549294     0.09300
C205        C  0.29563098  0.23357678  0.16065920    -0.12800
C206        C  0.32980666  0.23391276  0.13174264    -0.12800
C207        C  0.36667466  0.23952287  0.15635020     0.09300
C208        C  0.36824503  0.24333339  0.21131916    -0.12800
H209        H  0.33634382  0.24657687  0.28267061     0.13300
H210        H  0.26859400  0.22810732  0.13958911     0.13300
H211        H  0.32713662  0.22962662  0.08954072     0.13300
H212        H  0.39584918  0.24713761  0.23189060     0.13300
C213        C  0.21236738  0.26896879  0.18001819    -0.12800
C214        C  0.21989006  0.24121980  0.21925424     0.09300
C215        C  0.18769006  0.21847494  0.23493280    -0.12800
C216        C  0.15100041  0.22128627  0.20963309    -0.12800
C217        C  0.14498890  0.24715002  0.16815294     0.09300
C218        C  0.17604068  0.27131315  0.15435686    -0.12800
H219        H  0.23496600  0.28879692  0.16868278     0.13300
H220        H  0.19021009  0.19870999  0.26752154     0.13300
H221        H  0.12777151  0.20232800  0.22136707     0.13300
H222        H  0.17231894  0.29193509  0.12278085     0.13300
C223        C  0.23015004  0.32203401  0.34946814    -0.12800
C224        C  0.25346041  0.35390687  0.33616655     0.09300
C225        C  0.27822273  0.34956572  0.29362392    -0.12800
C226        C  0.28096189  0.31375449  0.26674477    -0.12800
C227        C  0.25930308  0.28064078  0.28182689     0.09300
C228        C  0.23229818  0.28653711  0.32202533    -0.12800
H229        H  0.21026107  0.32450733  0.38171990     0.13300
H230        H  0.29638386  0.37351100  0.28210939     0.13300
H231        H  0.29985126  0.31266548  0.23343667     0.13300
H232        H  0.21311250  0.26324239  0.33291323     0.13300
C233        C  0.26157214  0.13204116  0.28658043    -0.12800
C234        C  0.26509215  0.13282910  0.34164428     0.09300
C235        C  0.27051963  0.16942428  0.36669600    -0.12800
C236        C  0.27018943  0.20405637  0.33831323    -0.12800
C237        C  0.26348946  0.20377588  0.28354881     0.09300
C238        C  0.26111596  0.16687394  0.25806238    -0.12800
H239        H  0.25816721  0.10468603  0.26562811     0.13300
H240        H  0.27481212  0.17158860  0.40896673     0.13300
H241        H  0.27527523  0.23082897  0.35984902     0.13300
H242        H  0.25746267  0.16516115  0.21566764     0.13300
C243        C  0.38158845  0.36460453  0.49802917    -0.12700
C244        C  0.40718813  0.34122882  0.49431194    -0.14300
C245        C  0.13233545  0.12151252  0.49201886    -0.12700
C246        C  0.10648829  0.14458614  0.48871453    -0.14300
C247        C  0.13292214  0.36257891  0.48643951    -0.12700
C248        C  0.10692857  0.33958177  0.48241459    -0.14300
C249        C  0.40571418  0.14513269  0.49470256    -0.12700
C250        C  0.37983226  0.12224060  0.49847883    -0.14300
C251        C  0.32581434  0.22216043  0.76642821    -0.12800
C252        C  0.29364969  0.24521973  0.78205002     0.09300
C253        C  0.30119064  0.27322051  0.82189309    -0.12800
C254        C  0.33740526  0.27523321  0.84834574    -0.12800
C255        C  0.36836155  0.25067037  0.83443872     0.09300
C256        C  0.36228892  0.22465883  0.79239005    -0.12800
H257        H  0.32342959  0.20224032  0.73338934     0.13300
H258        H  0.27865580  0.29329263  0.83328230     0.13300
H259        H  0.34113299  0.29590219  0.88050667     0.13300
H260        H  0.38535132  0.20531861  0.78063719     0.13300
C261        C  0.14492474  0.24614207  0.78887530    -0.12800
C262        C  0.14632481  0.24261439  0.84379335     0.09300
C263        C  0.18320511  0.23770689  0.86849094    -0.12800
C264        C  0.21750803  0.23782312  0.83990004    -0.12800
C265        C  0.21658806  0.24349362  0.78521535     0.09300
C266        C  0.17937801  0.24613685  0.76013545    -0.12800
H267        H  0.11734326  0.24932525  0.76814931     0.13300
H268        H  0.18584537  0.23366123  0.91059928     0.13300
H269        H  0.24451760  0.23287845  0.86109364     0.13300
H270        H  0.17712186  0.24917372  0.71781484     0.13300
C271        C  0.28268574  0.32297532  0.64988770    -0.12800
C272        C  0.25919063  0.35507231  0.66264528     0.09300
C273        C  0.23439316  0.35157086  0.70520648    -0.12800
C274        C  0.23198257  0.31648230  0.73283918    -0.12800
C275        C  0.25404735  0.28319981  0.71861202     0.09300
C276        C  0.28085926  0.28818533  0.67809757    -0.12800
H277        H  0.30256919  0.32475103  0.61762026     0.13300
H278        H  0.21602958  0.37565928  0.71629523     0.13300
H279        H  0.21302264  0.31610619  0.76607767     0.13300
H280        H  0.30013165  0.26469634  0.66757100     0.13300
C281        C  0.24208127  0.20531623  0.66364662    -0.12800
C282        C  0.25015039  0.20628072  0.71805563     0.09300
C283        C  0.25350832  0.16993249  0.74378063    -0.12800
C284        C  0.25280221  0.13445881  0.71558253    -0.12800
C285        C  0.24757795  0.13402455  0.66072792     0.09300
C286        C  0.24103287  0.17004995  0.63568571    -0.12800
H287        H  0.23628619  0.23161306  0.64214754     0.13300
H288        H  0.25820319  0.16918544  0.78603108     0.13300
H289        H  0.25727183  0.10760411  0.73654398     0.13300
H290        H  0.23540808  0.17128245  0.59364824     0.13300
C291        C  0.25519836  0.74533437  0.75099153    -0.01900
O292        O  0.14773292  0.55644166  0.49483412    -0.74800
O293        O  0.19611217  0.60159741  0.49648387    -0.53700
C294        C  0.16034066  0.59138151  0.49508226     0.79000
O295        O  0.25532493  0.92534203  0.64709643    -0.59400
O296        O  0.25972660  0.88244371  0.57828247    -0.52400
C297        C  0.25808651  0.89037482  0.62760628     0.71000
O298        O  0.24967296  0.56313020  0.64745189    -0.73900
O299        O  0.25363435  0.60417288  0.57809143    -0.52700
C300        C  0.25069866  0.59784955  0.62727341     0.77000
O301        O  0.14889589  0.92821288  0.48852771    -0.59100
O302        O  0.19730830  0.88342416  0.49655885    -0.52200
C303        C  0.16160489  0.89339466  0.49115182     0.73600
Zr304      Zr  0.17576338  0.99270474  0.49601399     2.54700
O305        O  0.12911195  0.99152020  0.56640990    -0.79600
O306        O  0.12354675  0.99167365  0.42986664    -0.93000
Zr307      Zr  0.25481803  0.99383146  0.61382110     2.64700
O308        O  0.20025104  0.49009656  0.67654907    -0.98000
O309        O  0.30474004  0.99646260  0.68312936    -0.80100
O310        O  0.21271031  0.52958457  0.55433448    -0.83400
O311        O  0.21478219  0.95598376  0.55508789    -2.18100
O312        O  0.25766743  0.92469097  0.35168947    -0.66800
O313        O  0.25312656  0.88252244  0.42000895    -0.51400
C314        C  0.25465539  0.88993177  0.37082540     0.72000
O315        O  0.36400161  0.55724975  0.50214714    -0.59700
O316        O  0.31536558  0.60202967  0.50019590    -0.51700
C317        C  0.35121847  0.59206694  0.49998851     0.73800
O318        O  0.36550960  0.92921352  0.50288961    -0.71100
O319        O  0.31716768  0.88404615  0.49857543    -0.49800
C320        C  0.35297350  0.89428139  0.50017622     0.75200
O321        O  0.26301310  0.56142514  0.35394459    -0.66400
O322        O  0.25901073  0.60309901  0.42381973    -0.53600
C323        C  0.26232248  0.59625061  0.37460503     0.73500
Zr324      Zr  0.25810938  0.99335106  0.38669958     2.77500
O325        O  0.30806799  0.99412016  0.32064021    -0.97200
O326        O  0.20695998  0.99378988  0.31911781    -0.78000
Zr327      Zr  0.33734762  0.99332709  0.50488686     2.70100
O328        O  0.39095560  0.99113439  0.44421550    -0.79200
O329        O  0.38223262  0.99703311  0.58006884    -0.98300
Zr330      Zr  0.25574942  0.56486524  0.50085093     2.21500
Zr331      Zr  0.25700107  0.92035917  0.49956917     2.11100
O332        O  0.29856403  0.95633115  0.44453813    -2.47000
O333        O  0.29871714  0.52930916  0.44720948    -0.79000
O334        O  0.21669531  0.95620531  0.44060469    -0.71200
O335        O  0.29551373  0.53038208  0.56201795    -2.32200
O336        O  0.21612401  0.52931745  0.43964255    -2.28400
O337        O  0.29705125  0.95644862  0.55977743    -0.73000
H338        H  0.19866371  0.93875688  0.57484360     0.79000
H339        H  0.31079334  0.54789412  0.58408806     0.80100
H340        H  0.31468192  0.93933174  0.42391761     0.82300
H341        H  0.20082967  0.54643369  0.41762735     0.79900
H342        H  0.31732462  0.47199380  0.67887315     0.43000
H343        H  0.36781680  0.98562737  0.60933713     0.41900
H344        H  0.38304442  0.49829690  0.41716074     0.41600
H345        H  0.32375403  0.97058532  0.32754610     0.39500
H346        H  0.19050440  0.97119217  0.32726991     0.42700
H347        H  0.12924144  0.51929370  0.40587484     0.37500
H348        H  0.13206685  0.47860456  0.58551880     0.43600
H349        H  0.18432197  0.97394123  0.66364450     0.40000
H350        H  0.29398530  0.98837988  0.28707810     0.44900
H351        H  0.10113189  0.00373289  0.44743415     0.43600
H352        H  0.21573273  0.97748485  0.70880869     0.43800
H353        H  0.40267523  0.97776956  0.57230184     0.44100
N354        N  0.44804947  0.74283470  0.48969816    -0.36100
N355        N  0.00661623  0.80266865  0.48524989    -0.56600
N356        N  0.06489945  0.74255294  0.48712862    -0.36100
N357        N  0.00575356  0.68335031  0.48713972    -0.56600
C358        C  0.42618770  0.77431819  0.47892055     0.27500
C359        C  0.42568191  0.71142535  0.47938683     0.27500
C360        C  0.08641876  0.77363659  0.47468370     0.27500
C361        C  0.08592658  0.71078133  0.47536037     0.27500
C362        C  0.47638488  0.82459496  0.49535987     0.36100
C363        C  0.03834450  0.82465267  0.49506697     0.36100
C364        C  0.47504260  0.66075241  0.49742719     0.36100
C365        C  0.03716281  0.66112236  0.49716594     0.36100
C366        C  0.38948068  0.76288547  0.46147643    -0.21400
C367        C  0.38916097  0.72305170  0.46173983    -0.21400
C368        C  0.12159025  0.76156577  0.45469522    -0.21300
C369        C  0.12126668  0.72172686  0.45508725    -0.21300
C370        C  0.48881702  0.86139564  0.51045212    -0.22400
C371        C  0.02763594  0.86163551  0.51109552    -0.22400
C372        C  0.48678637  0.62392419  0.51230471    -0.22400
C373        C  0.02591645  0.62484446  0.51423630    -0.22400
C374        C  0.43747082  0.81281800  0.48948168    -0.17800
C375        C  0.43634061  0.67293571  0.49022997    -0.17800
C376        C  0.07547105  0.67261757  0.48755742    -0.17800
C377        C  0.07646717  0.81231971  0.48572172    -0.17800
H378        H  0.36521959  0.78133147  0.45077544     0.15200
H379        H  0.36458037  0.70476919  0.45127150     0.15200
H380        H  0.14532307  0.77958138  0.44222114     0.15200
H381        H  0.14470784  0.70299169  0.44299724     0.15200
H382        H  0.47108947  0.88593558  0.52155304     0.13400
H383        H  0.04652685  0.88588318  0.52081209     0.13400
H384        H  0.46855699  0.59965389  0.52229937     0.13400
H385        H  0.04443866  0.60056679  0.52433212     0.13400
H386        H  0.47452557  0.74295244  0.51007570     0.26700
H387        H  0.03996969  0.74308844  0.50934739     0.26700
C388        C  0.26038411  0.74147113  0.25116750    -0.01900
N389        N  0.31731652  0.99566287  0.01428520    -0.36100
N390        N  0.25829494  0.93676146  0.01768363    -0.56600
N391        N  0.19906433  0.99603748  0.01617862    -0.36100
N392        N  0.25747176  0.55528965  0.01806354    -0.56600
C393        C  0.33812971  0.96347796  0.00341550     0.27500
C394        C  0.33751456  0.52751672  0.00065063     0.27500
C395        C  0.17785339  0.96416591  0.00360848     0.27500
C396        C  0.17676053  0.52777198  0.01055144     0.27500
C397        C  0.28955209  0.91456091  0.02821406     0.36100
C398        C  0.22712488  0.91463490  0.02708099     0.36100
C399        C  0.28904014  0.57812633  0.02274268     0.36100
C400        C  0.22686244  0.57798488  0.02887829     0.36100
C401        C  0.37246129  0.97380108  0.97989155    -0.21400
C402        C  0.37261646  0.51558519  0.98029590    -0.21400
C403        C  0.14230650  0.97524470  0.98197143    -0.21300
C404        C  0.14068725  0.51645992  0.99051140    -0.21300
C405        C  0.27828633  0.87807086  0.04456207    -0.22400
C406        C  0.23852644  0.87810342  0.04377929    -0.22400
C407        C  0.27854413  0.61561441  0.03690751    -0.22400
C408        C  0.23897571  0.61551178  0.04090639    -0.22400
C409        C  0.32757087  0.92542042  0.01678910    -0.17800
C410        C  0.32636126  0.56651688  0.00840024    -0.17800
C411        C  0.18817315  0.56636663  0.02112308    -0.17800
C412        C  0.18892113  0.92569066  0.01469395    -0.17800
H413        H  0.39536432  0.95466926  0.96709271     0.15200
H414        H  0.39581005  0.53374143  0.96652192     0.15200
H415        H  0.11878932  0.95651117  0.96864110     0.15200
H416        H  0.11678885  0.53502018  0.97870936     0.15200
H417        H  0.29671984  0.85364631  0.05431885     0.13400
H418        H  0.22015031  0.85374364  0.05296065     0.13400
H419        H  0.29728253  0.64062588  0.04223596     0.13400
H420        H  0.22109587  0.64048278  0.04962438     0.13400
H421        H  0.29281297  0.99688421  0.03735029     0.26700
H422        H  0.22470076  0.99658981  0.03854910     0.26700
O423        O  0.07750823  0.74455312  0.85625958    -0.74800
O424        O  0.11904916  0.74187615  0.92723783    -0.53700
C425        C  0.11226665  0.74261509  0.87751023     0.79000
O426        O  0.44412121  0.85343110  0.01208214    -0.59400
O427        O  0.39880681  0.80548341  0.00301897    -0.52400
C428        C  0.40916354  0.84101661  0.00925702     0.71000
O429        O  0.07223822  0.85404750  0.00511303    -0.73900
O430        O  0.11697755  0.80539025  0.00444715    -0.54500
C431        C  0.10704370  0.84126280  0.00550286     0.77000
O432        O  0.43995261  0.74823293  0.85017772    -0.59100
O433        O  0.39745106  0.75011961  0.91784109    -0.52200
C434        C  0.40510400  0.75016186  0.86878645     0.73600
Zr435      Zr  0.00832424  0.74544485  0.88707584     2.54700
O436        O  0.00872013  0.79543801  0.82021606    -0.79600
O437        O  0.50780761  0.69634824  0.81929269    -0.93000
Zr438      Zr  0.00809219  0.82625580  0.00238965     2.64700
O439        O  0.00525872  0.87343739  0.93185354    -0.98000
O440        O  0.01180354  0.87877649  0.06733579    -0.80100
O441        O  0.04526381  0.78681348  0.94535162    -0.83400
O442        O  0.47133243  0.78750952  0.94380397    -2.18100
O443        O  0.44237231  0.63685117  0.99282813    -0.66800
O444        O  0.39797168  0.68593605  0.99274773    -0.51400
C445        C  0.40764336  0.64998869  0.99230060     0.72000
O446        O  0.07592290  0.74383697  0.15041045    -0.59700
O447        O  0.11838039  0.74918115  0.08320115    -0.51700
C448        C  0.11079522  0.74701589  0.13212136     0.73800
O449        O  0.43829243  0.73992527  0.14554755    -0.71100
O450        O  0.39644720  0.74346598  0.07492297    -0.49800
C451        C  0.40340584  0.74076112  0.12450665     0.75200
O452        O  0.07124971  0.63707443  0.00801189    -0.66400
O453        O  0.11615830  0.68570572  0.01211089    -0.53600
C454        C  0.10598864  0.64992287  0.01240092     0.73500
Zr455      Zr  0.00724368  0.66439187  0.99852370     2.77500
O456        O  0.00631860  0.61329002  0.06394520    -0.97200
O457        O  0.01044675  0.61758899  0.92627792    -0.78000
Zr458      Zr  0.00713046  0.74450466  0.11409466     2.70100
O459        O  0.00791568  0.69344513  0.17946458    -0.79200
O460        O  0.00757108  0.79469226  0.18225456    -0.98300
Zr461      Zr  0.08015958  0.74550841  0.00378383     2.21500
Zr462      Zr  0.43504296  0.74554514  0.99780067     2.11100
O463        O  0.47011832  0.70279552  0.05424542    -2.47000
O464        O  0.04412889  0.70384470  0.05814522    -0.79000
O465        O  0.47039886  0.70496696  0.93962488    -0.71200
O466        O  0.04416298  0.78634235  0.06070851    -2.32200
O467        O  0.04492087  0.70416332  0.94411233    -2.28400
O468        O  0.47078580  0.78508588  0.05878190    -0.73000
H469        H  0.45449811  0.80415737  0.92329955     0.79000
H470        H  0.06100506  0.80231915  0.08274884     0.80100
H471        H  0.45284975  0.68654193  0.07359339     0.82300
H472        H  0.06219060  0.68800772  0.92404966     0.79900
H473        H  0.99057095  0.87354094  0.09184724     0.43000
H474        H  0.53148387  0.80671061  0.17817339     0.41900
H475        H  0.02442314  0.67288891  0.16420346     0.41600
H476        H  0.48572010  0.62055357  0.08648604     0.39500
H477        H  0.50977372  0.62950802  0.89427935     0.42700
H478        H  0.02276099  0.67284500  0.83619045     0.37500
H479        H  0.99433175  0.81739717  0.83588496     0.43600
H480        H  0.51754729  0.89821357  0.95325820     0.40000
H481        H  0.99878592  0.58950537  0.04401319     0.44900
H482        H  0.51147284  0.71046184  0.78610065     0.43600
H483        H  0.02478298  0.86430056  0.90657553     0.43800
H484        H  0.99278725  0.78339832  0.21126215     0.44100
C485        C  0.37759251  0.62183592  0.99362831    -0.12700
C486        C  0.35424143  0.59655342  0.99920993    -0.14300
C487        C  0.13680968  0.86980519  0.00795374    -0.12700
C488        C  0.16016705  0.89554003  0.01087228    -0.14300
C489        C  0.37967564  0.86963323  0.01290165    -0.12700
C490        C  0.35635292  0.89532944  0.01506355    -0.14300
C491        C  0.13554807  0.62155060  0.01743417    -0.12700
C492        C  0.15914482  0.59615920  0.01990506    -0.14300
C493        C  0.33474128  0.74146072  0.24173037    -0.12800
C494        C  0.29744818  0.73950980  0.21675994     0.09300
C495        C  0.29638255  0.73443601  0.16173217    -0.12800
C496        C  0.33066457  0.73435313  0.13290233    -0.12800
C497        C  0.36770080  0.73849390  0.15765566     0.09300
C498        C  0.36916818  0.74111843  0.21280222    -0.12800
H499        H  0.33711683  0.74418261  0.28417310     0.13300
H500        H  0.26925390  0.73022892  0.14036283     0.13300
H501        H  0.32790811  0.73104770  0.09056690     0.13300
H502        H  0.39681913  0.74367166  0.23359683     0.13300
C503        C  0.21303030  0.77053071  0.18187469    -0.12800
C504        C  0.22048260  0.74194108  0.22008431     0.09300
C505        C  0.18831481  0.71852099  0.23409559    -0.12800
C506        C  0.15188429  0.72147808  0.20811125    -0.12800
C507        C  0.14594341  0.74826924  0.16771794     0.09300
C508        C  0.17688838  0.77310113  0.15558345    -0.12800
H509        H  0.23559208  0.79077587  0.17172066     0.13300
H510        H  0.19061009  0.69801789  0.26583704     0.13300
H511        H  0.12876639  0.70192139  0.21847735     0.13300
H512        H  0.17324951  0.79438900  0.12482290     0.13300
C513        C  0.23043620  0.82270393  0.34977736    -0.12800
C514        C  0.25335403  0.85470451  0.33582584     0.09300
C515        C  0.27826490  0.85008666  0.29346372    -0.12800
C516        C  0.28161831  0.81388562  0.26758249    -0.12800
C517        C  0.26017662  0.78074646  0.28316719     0.09300
C518        C  0.23309370  0.78687237  0.32322571    -0.12800
H519        H  0.21045682  0.82533085  0.38190995     0.13300
H520        H  0.29615943  0.87408955  0.28144179     0.13300
H521        H  0.30070253  0.81250340  0.23449234     0.13300
H522        H  0.21403242  0.76357771  0.33446935     0.13300
C523        C  0.26162871  0.63182222  0.28680178    -0.12800
C524        C  0.26518721  0.63224899  0.34185496     0.09300
C525        C  0.27035857  0.66874739  0.36731683    -0.12800
C526        C  0.26995179  0.70358812  0.33934200    -0.12800
C527        C  0.26350262  0.70366224  0.28451959     0.09300
C528        C  0.26115740  0.66686288  0.25868370    -0.12800
H529        H  0.25828732  0.60458844  0.26553704     0.13300
H530        H  0.27458933  0.67067188  0.40961785     0.13300
H531        H  0.27492588  0.73022969  0.36122208     0.13300
H532        H  0.25762180  0.66539376  0.21626327     0.13300
C533        C  0.38168613  0.86471807  0.49771978    -0.12700
C534        C  0.40731916  0.84138600  0.49422091    -0.14300
C535        C  0.13170923  0.62099226  0.49303242    -0.12700
C536        C  0.10589403  0.64420665  0.49052058    -0.14300
C537        C  0.13307990  0.86366137  0.48850960    -0.12700
C538        C  0.10715084  0.84051343  0.48702664    -0.14300
C539        C  0.40569706  0.64477833  0.49367291    -0.12700
C540        C  0.37975993  0.62175505  0.49672609    -0.14300
C541        C  0.32762811  0.72369399  0.76535161    -0.12800
C542        C  0.29525958  0.74619042  0.78160418     0.09300
C543        C  0.30266250  0.77419245  0.82149809    -0.12800
C544        C  0.33895643  0.77659522  0.84759790    -0.12800
C545        C  0.37003269  0.75238401  0.83334089     0.09300
C546        C  0.36419868  0.72660799  0.79095279    -0.12800
H547        H  0.32526494  0.70385735  0.73221001     0.13300
H548        H  0.27994497  0.79392791  0.83324817     0.13300
H549        H  0.34260223  0.79713484  0.87992680     0.13300
H550        H  0.38745979  0.70762652  0.77885119     0.13300
C551        C  0.14656679  0.74554581  0.78961389    -0.12800
C552        C  0.14802247  0.74143382  0.84444375     0.09300
C553        C  0.18504981  0.73681797  0.86894908    -0.12800
C554        C  0.21935083  0.73770946  0.84020264    -0.12800
C555        C  0.21825583  0.74378942  0.78554803     0.09300
C556        C  0.18096087  0.74629953  0.76075717    -0.12800
H557        H  0.11893090  0.74860980  0.76900500     0.13300
H558        H  0.18779701  0.73250254  0.91099744     0.13300
H559        H  0.24649314  0.73299475  0.86120072     0.13300
H560        H  0.17856195  0.74970833  0.71850742     0.13300
C561        C  0.28305909  0.82390210  0.64974038    -0.12800
C562        C  0.25947552  0.85581625  0.66277830     0.09300
C563        C  0.23519860  0.85231612  0.70593160    -0.12800
C564        C  0.23322400  0.81719908  0.73363655    -0.12800
C565        C  0.25517591  0.78397212  0.71880342     0.09300
C566        C  0.28170603  0.78916637  0.67801891    -0.12800
H567        H  0.30269398  0.82579847  0.61720640     0.13300
H568        H  0.21694135  0.87638365  0.71743033     0.13300
H569        H  0.21467270  0.81669345  0.76730886     0.13300
H570        H  0.30109572  0.76584275  0.66725225     0.13300
C571        C  0.24421253  0.70591351  0.66315371    -0.12800
C572        C  0.25185182  0.70692394  0.71771261     0.09300
C573        C  0.25502571  0.67054040  0.74338037    -0.12800
C574        C  0.25385520  0.63499118  0.71525579    -0.12800
C575        C  0.24871658  0.63443145  0.66037450     0.09300
C576        C  0.24303734  0.67057721  0.63519927    -0.12800
H577        H  0.23874493  0.73220008  0.64150009     0.13300
H578        H  0.25961932  0.66978471  0.78564306     0.13300
H579        H  0.25783328  0.60812541  0.73634348     0.13300
H580        H  0.23774489  0.67182679  0.59309230     0.13300
C581        C  0.75385811  0.24533906  0.75086122    -0.01900
O582        O  0.64850670  0.05723453  0.49509783    -0.74800
O583        O  0.69689334  0.10234645  0.49870288    -0.53700
C584        C  0.66116326  0.09212127  0.49646953     0.79000
O585        O  0.75467318  0.42592709  0.64813000    -0.59400
O586        O  0.75951965  0.38310206  0.57924425    -0.52400
C587        C  0.75773843  0.39096531  0.62855336     0.71000
O588        O  0.74945164  0.06315687  0.64858072    -0.73900
O589        O  0.75326178  0.10413069  0.57921794    -0.52700
C590        C  0.75000135  0.09778355  0.62835090     0.77000
O591        O  0.64852454  0.42799164  0.48591747    -0.59100
O592        O  0.69713096  0.38349200  0.49462005    -0.52200
C593        C  0.66142072  0.39321812  0.48821533     0.73600
Zr594      Zr  0.67567920  0.49237161  0.49392751     2.54700
O595        O  0.62570408  0.49022857  0.55984673    -0.79600
O596        O  0.62709526  0.49288364  0.42280704    -0.93000
Zr597      Zr  0.75335262  0.49426036  0.61400792     2.64700
O598        O  0.70268220  0.99355976  0.67915252    -0.98000
O599        O  0.80181002  0.49842095  0.68509764    -0.80100
O600        O  0.71357736  0.03021327  0.55534951    -0.83400
O601        O  0.71403385  0.45611087  0.55446760    -2.18100
O602        O  0.75895451  0.42416822  0.35252613    -0.66800
O603        O  0.75361893  0.38208343  0.42079960    -0.51400
C604        C  0.75549901  0.38944249  0.37161303     0.72000
O605        O  0.86333336  0.05807323  0.49895751    -0.59700
O606        O  0.81508021  0.10319705  0.50144038    -0.51700
C607        C  0.85072013  0.09298578  0.49857970     0.73800
O608        O  0.86502414  0.42881860  0.50449284    -0.71100
O609        O  0.81664129  0.38369144  0.49918599    -0.49800
C610        C  0.85242598  0.39387829  0.50114861     0.75200
O611        O  0.76229745  0.06194115  0.35467485    -0.66400
O612        O  0.75985797  0.10366053  0.42468223    -0.53600
C613        C  0.76223127  0.09677140  0.37535948     0.73500
Zr614      Zr  0.75936125  0.49295997  0.38705680     2.77500
O615        O  0.80995789  0.49308696  0.32183201    -0.97200
O616        O  0.70835389  0.49164234  0.31937412    -0.78000
Zr617      Zr  0.83740256  0.49337397  0.50726282     2.70100
O618        O  0.89135447  0.49417112  0.44722607    -0.79200
O619        O  0.88259633  0.49470024  0.58233551    -0.98300
Zr620      Zr  0.75621221  0.06531418  0.50149614     2.21500
Zr621      Zr  0.75692662  0.42039510  0.50008657     2.11100
O622        O  0.79927694  0.45631378  0.44608375    -2.47000
O623        O  0.79887821  0.02986982  0.44711305    -0.79000
O624        O  0.71740236  0.45577738  0.43995170    -0.71200
O625        O  0.79642956  0.03090633  0.56209937    -2.32200
O626        O  0.71617209  0.02974358  0.44064565    -2.28400
O627        O  0.79622786  0.45666929  0.56120158    -0.73000
H628        H  0.69771908  0.43886039  0.57390270     0.79000
H629        H  0.81180003  0.04851025  0.58391466     0.80100
H630        H  0.81558284  0.43929203  0.42578339     0.82300
H631        H  0.70082558  0.04690456  0.41877530     0.79900
H632        H  0.81812062  0.02075862  0.67721330     0.43000
H633        H  0.90706056  0.50470948  0.56802052     0.41900
H634        H  0.88090913  0.97679090  0.41610104     0.41600
H635        H  0.82842978  0.47279943  0.33362486     0.39500
H636        H  0.68724426  0.47644241  0.33503511     0.42700
H637        H  0.63123723  0.01696660  0.40474738     0.37500
H638        H  0.63847020  0.00405508  0.59300074     0.43600
H639        H  0.68353872  0.47205703  0.66388664     0.40000
H640        H  0.79734463  0.48203547  0.28965010     0.44900
H641        H  0.60204579  0.49581449  0.44073801     0.43600
H642        H  0.71202237  0.48571760  0.70919849     0.43800
H643        H  0.87328406  0.51594509  0.60535165     0.44100
N644        N  0.94776008  0.24246149  0.48819931    -0.36100
N645        N  0.50681090  0.30198206  0.48220902    -0.56600
N646        N  0.56490632  0.24192038  0.48209379    -0.36100
N647        N  0.50607744  0.18246475  0.48569246    -0.56600
C648        C  0.92577320  0.27389460  0.47763586     0.27500
C649        C  0.92588150  0.21104790  0.47601259     0.27500
C650        C  0.58636637  0.27275239  0.46841573     0.27500
C651        C  0.58599389  0.20995396  0.47179728     0.27500
C652        C  0.97550155  0.32442282  0.49431125     0.36100
C653        C  0.53879195  0.32403855  0.48985297     0.36100
C654        C  0.97501461  0.16059194  0.49519864     0.36100
C655        C  0.53759496  0.16053089  0.49613161     0.36100
C656        C  0.88952554  0.26244054  0.45849857    -0.21400
C657        C  0.88963319  0.22261370  0.45726481    -0.21400
C658        C  0.62148857  0.26026861  0.44869910    -0.21300
C659        C  0.62126334  0.22045841  0.45087055    -0.21300
C660        C  0.98780888  0.36143044  0.50859954    -0.22400
C661        C  0.52857381  0.36102733  0.50643066    -0.22400
C662        C  0.98681336  0.12434246  0.51242042    -0.22400
C663        C  0.52654588  0.12424163  0.51348181    -0.22400
C664        C  0.93667856  0.31234214  0.48910887    -0.17800
C665        C  0.93642508  0.17260224  0.48693594    -0.17800
C666        C  0.57581605  0.17220855  0.48637503    -0.17800
C667        C  0.57669166  0.31158679  0.47908823    -0.17800
H668        H  0.86535783  0.28086261  0.44734618     0.15200
H669        H  0.86547470  0.20425956  0.44518608     0.15200
H670        H  0.64526187  0.27801954  0.43571680     0.15200
H671        H  0.64481034  0.20149177  0.43981293     0.15200
H672        H  0.97002335  0.38594347  0.51964648     0.13400
H673        H  0.54770275  0.38530793  0.51495012     0.13400
H674        H  0.96861439  0.10035480  0.52360335     0.13400
H675        H  0.54520058  0.10013758  0.52392107     0.13400
H676        H  0.97385665  0.24248755  0.50954630     0.26700
H677        H  0.54022981  0.24282026  0.50475018     0.26700
C678        C  0.75960397  0.24137529  0.25076620    -0.01900
N679        N  0.81696386  0.49566563  0.01224845    -0.36100
N680        N  0.75770225  0.43648911  0.01370126    -0.56600
N681        N  0.69839190  0.49552896  0.01513646    -0.36100
N682        N  0.75764173  0.05438475  0.01541499    -0.56600
C683        C  0.83797181  0.46370391  0.00091481     0.27500
C684        C  0.83803737  0.02679713  0.00254517     0.27500
C685        C  0.67678609  0.46385306  0.00299145     0.27500
C686        C  0.67693763  0.02631035  0.00610975     0.27500
C687        C  0.78906575  0.41425784  0.02343935     0.36100
C688        C  0.72666163  0.41414868  0.02310761     0.36100
C689        C  0.78901257  0.07737753  0.02149302     0.36100
C690        C  0.72663611  0.07713373  0.02389070     0.36100
C691        C  0.87287693  0.47454880  0.97935507    -0.21400
C692        C  0.87313018  0.01473528  0.98232727    -0.21400
C693        C  0.64048104  0.47520973  0.98425341    -0.21300
C694        C  0.64092973  0.01422330  0.98672539    -0.21300
C695        C  0.77797885  0.37756022  0.03920115    -0.22400
C696        C  0.73825747  0.37749463  0.03895673    -0.22400
C697        C  0.77800577  0.11499363  0.03408765    -0.22400
C698        C  0.73831992  0.11483468  0.03567288    -0.22400
C699        C  0.82705890  0.42533525  0.01219036    -0.17800
C700        C  0.82678603  0.06575016  0.00957110    -0.17800
C701        C  0.68812101  0.06526246  0.01481175    -0.17800
C702        C  0.68826857  0.42523864  0.01204700    -0.17800
H703        H  0.89613087  0.45571359  0.96690975     0.15200
H704        H  0.89615623  0.03277229  0.96781417     0.15200
H705        H  0.61647037  0.45667869  0.97215661     0.15200
H706        H  0.61684539  0.03229961  0.97421350     0.15200
H707        H  0.79650986  0.35310400  0.04843703     0.13400
H708        H  0.72001263  0.35303477  0.04812062     0.13400
H709        H  0.79653087  0.14011182  0.03992742     0.13400
H710        H  0.72013700  0.13984832  0.04287226     0.13400
H711        H  0.79199371  0.49633133  0.03434900     0.26700
H712        H  0.72473626  0.49577448  0.03580423     0.26700
O713        O  0.57665481  0.24708363  0.85667056    -0.74800
O714        O  0.61819543  0.24380028  0.92754721    -0.53700
C715        C  0.61138443  0.24520106  0.87789599     0.79000
O716        O  0.94303681  0.35347358  0.00696056    -0.59400
O717        O  0.89809521  0.30492658  0.00191493    -0.52400
C718        C  0.90821899  0.34070598  0.00522893     0.71000
O719        O  0.57152014  0.35369669  0.00651253    -0.73900
O720        O  0.61618227  0.30498454  0.00387026    -0.54500
C721        C  0.60629966  0.34085965  0.00543833     0.77000
O722        O  0.93874434  0.24579062  0.85081966    -0.59100
O723        O  0.89641681  0.24935252  0.91852029    -0.52200
C724        C  0.90390364  0.24838470  0.86941472     0.73600
Zr725      Zr  0.50756722  0.24647129  0.88729748     2.54700
O726        O  0.50825455  0.29771366  0.82222047    -0.79600
O727        O  0.00673929  0.19970576  0.81505295    -0.93000
Zr728      Zr  0.50719171  0.32611547  0.00365459     2.64700
O729        O  0.50698894  0.37323780  0.93284506    -0.98000
O730        O  0.50715485  0.37763780  0.07006426    -0.80100
O731        O  0.54440601  0.28702432  0.94646907    -0.83400
O732        O  0.97043078  0.28703107  0.94411598    -2.18100
O733        O  0.94297669  0.13642252  0.99507360    -0.66800
O734        O  0.89810609  0.18507052  0.99448405    -0.51400
C735        C  0.90814921  0.14924204  0.99470450     0.72000
O736        O  0.57470182  0.24232053  0.15105819    -0.59700
O737        O  0.61699905  0.24818740  0.08377129    -0.51700
C738        C  0.60953063  0.24582086  0.13268947     0.73800
O739        O  0.93728118  0.24124555  0.14531488    -0.71100
O740        O  0.89549635  0.24239046  0.07446486    -0.49800
C741        C  0.90244833  0.24086796  0.12411160     0.75200
O742        O  0.57116559  0.13642536  0.00378695    -0.66400
O743        O  0.61596058  0.18518182  0.00615652    -0.53600
C744        C  0.60597780  0.14929093  0.00607803     0.73500
Zr745      Zr  0.50702032  0.16400125  0.99709374     2.77500
O746        O  0.50480369  0.11302487  0.06275602    -0.97200
O747        O  0.51128034  0.11826195  0.92370283    -0.78000
Zr748      Zr  0.50607193  0.24283354  0.11402242     2.70100
O749        O  0.50465469  0.19061458  0.17764975    -0.79200
O750        O  0.50358159  0.29077552  0.18485295    -0.98300
Zr751      Zr  0.57933858  0.24517790  0.00397468     2.21500
Zr752      Zr  0.93451172  0.24503474  0.99814734     2.11100
O753        O  0.97001423  0.20296135  0.05501060    -2.47000
O754        O  0.54374651  0.20269825  0.05787466    -0.79000
O755        O  0.97004114  0.20424293  0.94045481    -0.71200
O756        O  0.54310378  0.28548413  0.06148616    -2.32200
O757        O  0.54418968  0.20468818  0.94349986    -2.28400
O758        O  0.96970539  0.28534637  0.05896875    -0.73000
H759        H  0.95350625  0.30339829  0.92331961     0.79000
H760        H  0.55995210  0.30124731  0.08381449     0.80100
H761        H  0.95289767  0.18668135  0.07454711     0.82300
H762        H  0.56153231  0.18894865  0.92297337     0.79900
H763        H  0.51965580  0.36596231  0.10156430     0.43000
H764        H  0.98971123  0.31113406  0.17475845     0.41900
H765        H  0.51433495  0.16762613  0.15829500     0.41600
H766        H  0.98718177  0.12185884  0.08935360     0.39500
H767        H  0.01882283  0.13007810  0.89659001     0.42700
H768        H  0.53025846  0.17802319  0.83191431     0.37500
H769        H  0.51614749  0.28456331  0.78932448     0.43600
H770        H  0.02033627  0.39704527  0.95132915     0.40000
H771        H  0.50361701  0.08850516  0.04208109     0.44900
H772        H  0.01891437  0.21348545  0.78575976     0.43600
H773        H  0.53219734  0.36961612  0.91552415     0.43800
H774        H  0.48233040  0.30848221  0.17412561     0.44100
C775        C  0.87840806  0.12088997  0.99670596    -0.12700
C776        C  0.85499957  0.09564766  0.00183715    -0.14300
C777        C  0.63613004  0.36934358  0.00649989    -0.12700
C778        C  0.65953904  0.39505323  0.00850329    -0.14300
C779        C  0.87865751  0.36924485  0.00716937    -0.12700
C780        C  0.85561339  0.39514943  0.00924803    -0.14300
C781        C  0.63571113  0.12078106  0.00887755    -0.12700
C782        C  0.65907684  0.09509333  0.01145103    -0.14300
C783        C  0.83398542  0.24188703  0.24128313    -0.12800
C784        C  0.79669511  0.23928605  0.21638999     0.09300
C785        C  0.79566056  0.23342254  0.16149050    -0.12800
C786        C  0.82987866  0.23354424  0.13259127    -0.12800
C787        C  0.86683587  0.23853630  0.15722739     0.09300
C788        C  0.86836400  0.24173059  0.21229665    -0.12800
H789        H  0.83638150  0.24505664  0.28367170     0.13300
H790        H  0.76861143  0.22839606  0.14027335     0.13300
H791        H  0.82712920  0.22968545  0.09032885     0.13300
H792        H  0.89601482  0.24484279  0.23296459     0.13300
C793        C  0.71242382  0.26896447  0.18013037    -0.12800
C794        C  0.71966492  0.24149497  0.21983473     0.09300
C795        C  0.68719479  0.21918838  0.23567696    -0.12800
C796        C  0.65059874  0.22199241  0.21004157    -0.12800
C797        C  0.64489340  0.24739035  0.16795722     0.09300
C798        C  0.67621972  0.27120014  0.15399679    -0.12800
H799        H  0.73517367  0.28857920  0.16868023     0.13300
H800        H  0.68944820  0.19972828  0.26863215     0.13300
H801        H  0.62719140  0.20334981  0.22201607     0.13300
H802        H  0.67280404  0.29151395  0.12200134     0.13300
C803        C  0.73055560  0.32248824  0.35011253    -0.12800
C804        C  0.75379171  0.35431447  0.33639077     0.09300
C805        C  0.77808106  0.34985726  0.29331686    -0.12800
C806        C  0.78078136  0.31385073  0.26677516    -0.12800
C807        C  0.75932203  0.28076642  0.28244913     0.09300
C808        C  0.73251134  0.28689582  0.32284651    -0.12800
H809        H  0.71085747  0.32506134  0.38257149     0.13300
H810        H  0.79600479  0.37381476  0.28122426     0.13300
H811        H  0.79948326  0.31252570  0.23327239     0.13300
H812        H  0.71331582  0.26370405  0.33406095     0.13300
C813        C  0.76086933  0.13199795  0.28738267    -0.12800
C814        C  0.76459359  0.13269065  0.34241589     0.09300
C815        C  0.76952798  0.16931728  0.36759261    -0.12800
C816        C  0.76914284  0.20399236  0.33929349    -0.12800
C817        C  0.76276794  0.20377866  0.28445240     0.09300
C818        C  0.76026237  0.16688161  0.25895536    -0.12800
H819        H  0.75758410  0.10465739  0.26636258     0.13300
H820        H  0.77367423  0.17147617  0.40988820     0.13300
H821        H  0.77412850  0.23071749  0.36096293     0.13300
H822        H  0.75662896  0.16520290  0.21655886     0.13300
C823        C  0.88097630  0.36419931  0.49826118    -0.12700
C824        C  0.90638717  0.34067858  0.49435242    -0.14300
C825        C  0.63257175  0.12159747  0.49454046    -0.12700
C826        C  0.60648458  0.14435397  0.49124936    -0.14300
C827        C  0.63320988  0.36316208  0.48361528    -0.12700
C828        C  0.60757860  0.33965989  0.48063079    -0.14300
C829        C  0.90567803  0.14473564  0.49063252    -0.12700
C830        C  0.87931872  0.12236214  0.49432400    -0.14300
C831        C  0.82611125  0.22275199  0.76537754    -0.12800
C832        C  0.79406284  0.24588329  0.78126450     0.09300
C833        C  0.80186981  0.27386423  0.82103547    -0.12800
C834        C  0.83797134  0.27541520  0.84775612    -0.12800
C835        C  0.86870404  0.25059650  0.83394885     0.09300
C836        C  0.86261417  0.22495363  0.79142206    -0.12800
H837        H  0.82354440  0.20294599  0.73221737     0.13300
H838        H  0.77954249  0.29417293  0.83239317     0.13300
H839        H  0.84178369  0.29595617  0.88004709     0.13300
H840        H  0.88561369  0.20560527  0.77946641     0.13300
C841        C  0.64538716  0.24667737  0.78982149    -0.12800
C842        C  0.64704613  0.24434253  0.84485053     0.09300
C843        C  0.68410787  0.24068866  0.86949590    -0.12800
C844        C  0.71825342  0.24017486  0.84054854    -0.12800
C845        C  0.71702182  0.24441063  0.78557724     0.09300
C846        C  0.67968415  0.24645245  0.76078679    -0.12800
H847        H  0.61767662  0.24890179  0.76917370     0.13300
H848        H  0.68701212  0.23788161  0.91178644     0.13300
H849        H  0.74534281  0.23586041  0.86178570     0.13300
H850        H  0.67717994  0.24862500  0.71837621     0.13300
C851        C  0.78188473  0.32385387  0.64944483    -0.12800
C852        C  0.75903457  0.35616447  0.66336606     0.09300
C853        C  0.73487490  0.35264612  0.70658538    -0.12800
C854        C  0.73244805  0.31733947  0.73372560    -0.12800
C855        C  0.75390026  0.28388244  0.71841893     0.09300
C856        C  0.78008569  0.28885922  0.67717783    -0.12800
H857        H  0.80128449  0.32563635  0.61663363     0.13300
H858        H  0.71701891  0.37688028  0.71858644     0.13300
H859        H  0.71400053  0.31692834  0.76750016     0.13300
H860        H  0.79896915  0.26526917  0.66581701     0.13300
C861        C  0.74174439  0.20555236  0.66372330    -0.12800
C862        C  0.75000402  0.20678191  0.71809880     0.09300
C863        C  0.75324240  0.17053071  0.74411245    -0.12800
C864        C  0.75228317  0.13489858  0.71623100    -0.12800
C865        C  0.74704439  0.13420676  0.66136798     0.09300
C866        C  0.74053566  0.17013442  0.63605879    -0.12800
H867        H  0.73596484  0.23175483  0.64201423     0.13300
H868        H  0.75800879  0.16997714  0.78635851     0.13300
H869        H  0.75667254  0.10813054  0.73742460     0.13300
H870        H  0.73484169  0.17115598  0.59402033     0.13300
C871        C  0.75456696  0.74530818  0.75009593    -0.01900
O872        O  0.64821625  0.55666289  0.49382950    -0.74800
O873        O  0.69660901  0.60176123  0.49782423    -0.53700
C874        C  0.66087908  0.59154598  0.49524144     0.79000
O875        O  0.75401160  0.92545816  0.64740083    -0.59400
O876        O  0.75858746  0.88274989  0.57834571    -0.52400
C877        C  0.75678539  0.89055028  0.62762623     0.71000
O878        O  0.75023012  0.56361835  0.64743739    -0.73900
O879        O  0.75233329  0.60438070  0.57766512    -0.52700
C880        C  0.75009395  0.59816556  0.62692867     0.77000
O881        O  0.64871585  0.92784979  0.48954946    -0.59100
O882        O  0.69731915  0.88317933  0.49621715    -0.52200
C883        C  0.66157830  0.89301972  0.49138505     0.73600
Zr884      Zr  0.67546901  0.99267184  0.49498754     2.54700
O885        O  0.62613060  0.99116406  0.56188783    -0.79600
O886        O  0.62552397  0.99367334  0.42562963    -0.93000
Zr887      Zr  0.75366312  0.99404786  0.61439521     2.64700
O888        O  0.70012893  0.49415873  0.67542894    -0.98000
O889        O  0.80397781  0.99625122  0.68316555    -0.80100
O890        O  0.71346293  0.53010975  0.55444396    -0.83400
O891        O  0.71401743  0.95627708  0.55494724    -2.18100
O892        O  0.75812949  0.92396272  0.35322380    -0.66800
O893        O  0.75299485  0.88170448  0.42128223    -0.51400
C894        C  0.75494584  0.88913682  0.37215654     0.72000
O895        O  0.86432462  0.55798019  0.50308573    -0.59700
O896        O  0.81548779  0.60254005  0.50148608    -0.51700
C897        C  0.85135587  0.59275401  0.50140040     0.73800
O898        O  0.86518061  0.92938377  0.50570657    -0.71100
O899        O  0.81674527  0.88453054  0.49717058    -0.49800
C900        C  0.85254862  0.89461981  0.50036040     0.75200
O901        O  0.76149471  0.56206100  0.35442602    -0.66400
O902        O  0.75899809  0.60391407  0.42428968    -0.53600
C903        C  0.76133019  0.59695251  0.37498304     0.73500
Zr904      Zr  0.75902870  0.99301859  0.38736928     2.77500
O905        O  0.81078737  0.99099681  0.32379921    -0.97200
O906        O  0.71027981  0.99431389  0.31668491    -0.78000
Zr907      Zr  0.83714930  0.99350272  0.50734422     2.70100
O908        O  0.89146095  0.99018006  0.44800046    -0.79200
O909        O  0.88182447  0.99747942  0.58286375    -0.98300
Zr910      Zr  0.75618889  0.56512720  0.50071103     2.21500
Zr911      Zr  0.75655153  0.92057792  0.49993167     2.11100
O912        O  0.79888941  0.95653206  0.44627664    -2.47000
O913        O  0.79918520  0.52974162  0.44681772    -0.79000
O914        O  0.71661277  0.95599188  0.44000343    -0.71200
O915        O  0.79622875  0.53081774  0.56154414    -2.32200
O916        O  0.71631153  0.52961357  0.43981271    -2.28400
O917        O  0.79613101  0.95644397  0.56106927    -0.73000
H918        H  0.69772978  0.93908930  0.57451447     0.79000
H919        H  0.81136269  0.54855091  0.58345716     0.80100
H920        H  0.81517038  0.93953419  0.42590916     0.82300
H921        H  0.70093216  0.54669174  0.41785330     0.79900
H922        H  0.78735772  0.49277323  0.71733792     0.43000
H923        H  0.86836666  0.98381935  0.61121730     0.41900
H924        H  0.88332288  0.47643391  0.41806091     0.41600
H925        H  0.82774028  0.96939065  0.33541099     0.39500
H926        H  0.72528892  0.99231047  0.28402028     0.42700
H927        H  0.63081681  0.51784873  0.40474098     0.37500
H928        H  0.63858980  0.50043067  0.59234475     0.43600
H929        H  0.68440882  0.97313844  0.66651343     0.40000
H930        H  0.79818177  0.98127444  0.29084583     0.44900
H931        H  0.60131743  0.00020926  0.44401258     0.43600
H932        H  0.71516476  0.98256042  0.71109722     0.43800
H933        H  0.90358399  0.98010740  0.57370409     0.44100
N934        N  0.94770690  0.74352943  0.48811777    -0.36100
N935        N  0.50695119  0.80206900  0.48327527    -0.56600
N936        N  0.56509502  0.74195344  0.48289966    -0.36100
N937        N  0.50612463  0.68272838  0.48651594    -0.56600
C938        C  0.92608155  0.77492323  0.47612595     0.27500
C939        C  0.92561649  0.71204690  0.47727734     0.27500
C940        C  0.58655007  0.77293816  0.46990015     0.27500
C941        C  0.58613911  0.71010764  0.47177145     0.27500
C942        C  0.97572125  0.82518531  0.49573383     0.36100
C943        C  0.53889044  0.82405340  0.49164352     0.36100
C944        C  0.97453161  0.66174754  0.49859016     0.36100
C945        C  0.53767468  0.66042468  0.49522151     0.36100
C946        C  0.88983854  0.76333708  0.45698429    -0.21400
C947        C  0.88955671  0.72346863  0.45765915    -0.21400
C948        C  0.62164068  0.76072477  0.44980067    -0.21300
C949        C  0.62138709  0.72087936  0.45098832    -0.21300
C950        C  0.98776941  0.86197260  0.51153717    -0.22400
C951        C  0.52859261  0.86104461  0.50813647    -0.22400
C952        C  0.98605576  0.62526977  0.51525269    -0.22400
C953        C  0.52663845  0.62372745  0.51098840    -0.22400
C954        C  0.93698134  0.81340478  0.48759556    -0.17800
C955        C  0.93593875  0.67384837  0.49017144    -0.17800
C956        C  0.57588725  0.67214719  0.48529289    -0.17800
C957        C  0.57685698  0.81160609  0.48144752    -0.17800
H958        H  0.86578762  0.78170471  0.44516460     0.15200
H959        H  0.86524339  0.70504543  0.44644010     0.15200
H960        H  0.64536988  0.77866195  0.43711255     0.15200
H961        H  0.64488124  0.70205059  0.43932923     0.15200
H962        H  0.96974716  0.88653312  0.52165880     0.13400
H963        H  0.54768952  0.88526790  0.51712766     0.13400
H964        H  0.96767914  0.60136070  0.52621616     0.13400
H965        H  0.54526874  0.59924077  0.51967773     0.13400
H966        H  0.97356204  0.74372341  0.50996851     0.26700
H967        H  0.54043404  0.74265472  0.50560125     0.26700
C968        C  0.76052763  0.74146247  0.25014578    -0.01900
N969        N  0.81744055  0.99563533  0.01743890    -0.36100
N970        N  0.75844783  0.93621195  0.01826969    -0.56600
N971        N  0.69878940  0.99504519  0.01842405    -0.36100
N972        N  0.75749889  0.55467800  0.01208876    -0.56600
C973        C  0.83863543  0.96384021  0.00602103     0.27500
C974        C  0.83764069  0.52675749  0.99715740     0.27500
C975        C  0.67742919  0.96316576  0.00642611     0.27500
C976        C  0.67657030  0.52692404  0.00363377     0.27500
C977        C  0.78990802  0.91402360  0.02767806     0.36100
C978        C  0.72748507  0.91360210  0.02705013     0.36100
C979        C  0.78895707  0.57767428  0.01679553     0.36100
C980        C  0.72663456  0.57755420  0.02079550     0.36100
C981        C  0.87353708  0.97487830  0.98461643    -0.21400
C982        C  0.87263207  0.51444405  0.97687747    -0.21400
C983        C  0.64126123  0.97425819  0.98684308    -0.21300
C984        C  0.64029590  0.51514393  0.98480728    -0.21300
C985        C  0.77897643  0.87707168  0.04252170    -0.22400
C986        C  0.73925502  0.87679583  0.04209533    -0.22400
C987        C  0.77812592  0.61544497  0.02891778    -0.22400
C988        C  0.73848321  0.61536242  0.03154548    -0.22400
C989        C  0.82789923  0.92541800  0.01696341    -0.17800
C990        C  0.82656647  0.56586192  0.00407955    -0.17800
C991        C  0.68805740  0.56572817  0.01228236    -0.17800
C992        C  0.68902730  0.92462115  0.01609595    -0.17800
H993        H  0.89688616  0.95618892  0.97210823     0.15200
H994        H  0.89571764  0.53234671  0.96224732     0.15200
H995        H  0.61744900  0.95553588  0.97454205     0.15200
H996        H  0.61614218  0.53339391  0.97304457     0.15200
H997        H  0.79761981  0.85259798  0.05124432     0.13400
H998        H  0.72113897  0.85208733  0.05054973     0.13400
H999        H  0.79669629  0.64063625  0.03359422     0.13400
H1000       H  0.72041212  0.64050801  0.03845835     0.13400
H1001       H  0.79238934  0.99618775  0.03940217     0.26700
H1002       H  0.72494423  0.99551583  0.03955037     0.26700
O1003       O  0.57723278  0.74640972  0.85575635    -0.74800
O1004       O  0.61876704  0.74397761  0.92666188    -0.53700
C1005       C  0.61198156  0.74485949  0.87698821     0.79000
O1006       O  0.94428097  0.85395479  0.00814195    -0.59400
O1007       O  0.89909047  0.80565897  0.00318655    -0.52400
C1008       C  0.90941383  0.84133971  0.00721245     0.71000
O1009       O  0.57241330  0.85312617  0.00680900    -0.73900
O1010       O  0.61702139  0.80431384  0.00612325    -0.54500
C1011       C  0.60718717  0.84019704  0.00733495     0.77000
O1012       O  0.93953974  0.74584169  0.85041395    -0.59100
O1013       O  0.89704027  0.75070477  0.91782903    -0.52200
C1014       C  0.90465174  0.74916930  0.86876449     0.73600
Zr1015     Zr  0.50829609  0.74684277  0.88709715     2.54700
O1016       O  0.50982778  0.79732599  0.82098510    -0.79600
O1017       O  0.00787722  0.69438859  0.82000767    -0.93000
Zr1018     Zr  0.50800857  0.82580276  0.00473526     2.64700
O1019       O  0.50454407  0.87526229  0.93708270    -0.98000
O1020       O  0.51118500  0.87477957  0.07446579    -0.80100
O1021       O  0.54512980  0.78728137  0.94642737    -0.83400
O1022       O  0.97142007  0.78693794  0.94261838    -2.18100
O1023       O  0.94274027  0.63703627  0.99523012    -0.66800
O1024       O  0.89812159  0.68583379  0.99107519    -0.51400
C1025       C  0.90795757  0.64992118  0.99237067     0.72000
O1026       O  0.57628871  0.74180126  0.14959949    -0.59700
O1027       O  0.61851160  0.74682153  0.08206683    -0.51700
C1028       C  0.61108244  0.74486411  0.13102195     0.73800
O1029       O  0.93827511  0.74212777  0.14539190    -0.71100
O1030       O  0.89663091  0.74237183  0.07436577    -0.49800
C1031       C  0.90351029  0.74130561  0.12407023     0.75200
O1032       O  0.57103240  0.63631368  0.99947066    -0.66400
O1033       O  0.61598746  0.68481556  0.00566259    -0.53600
C1034       C  0.60581931  0.64906074  0.00340897     0.73500
Zr1035     Zr  0.50695405  0.66399060  0.99648241     2.77500
O1036       O  0.50796984  0.61436160  0.06396652    -0.97200
O1037       O  0.50794098  0.61467003  0.92724134    -0.78000
Zr1038     Zr  0.50727751  0.74229716  0.11401708     2.70100
O1039       O  0.50828754  0.68952249  0.17682872    -0.79200
O1040       O  0.50790661  0.79106142  0.18411869    -0.98300
Zr1041     Zr  0.57990976  0.74474382  0.00312174     2.21500
Zr1042     Zr  0.93508562  0.74563015  0.99745025     2.11100
O1043       O  0.97029118  0.70391266  0.05519346    -2.47000
O1044       O  0.54428465  0.70230085  0.05699753    -0.79000
O1045       O  0.97048229  0.70425103  0.94049703    -0.71200
O1046       O  0.54418279  0.78470338  0.06128766    -2.32200
O1047       O  0.54451631  0.70436102  0.94258705    -2.28400
O1048       O  0.97064645  0.78634550  0.05747304    -0.73000
H1049       H  0.95456989  0.80326866  0.92166343     0.79000
H1050       H  0.56126241  0.80027692  0.08353271     0.80100
H1051       H  0.95310506  0.68776521  0.07482018     0.82300
H1052       H  0.56166181  0.68858221  0.92179335     0.79900
H1053       H  0.51904026  0.86032881  0.10641318     0.43000
H1054       H  0.99044609  0.81528975  0.16794288     0.41900
H1055       H  0.53113692  0.67375962  0.16729732     0.41600
H1056       H  0.98371085  0.61925954  0.08592491     0.39500
H1057       H  0.00716707  0.59203017  0.94299665     0.42700
H1058       H  0.53248384  0.68211760  0.82498304     0.37500
H1059       H  0.49939010  0.82062233  0.83883108     0.43600
H1060       H  0.01668316  0.89734491  0.94763200     0.40000
H1061       H  0.50028454  0.59016814  0.04508213     0.44900
H1062       H  0.02487050  0.70415987  0.79225649     0.43600
H1063       H  0.52264507  0.86612853  0.90991501     0.43800
H1064       H  0.48620095  0.80864645  0.17489232     0.44100
C1065       C  0.87808004  0.62144991  0.99234534    -0.12700
C1066       C  0.85485507  0.59580314  0.99625687    -0.14300
C1067       C  0.63705174  0.86859765  0.00992608    -0.12700
C1068       C  0.66039777  0.89433797  0.01262913    -0.14300
C1069       C  0.87997742  0.86988348  0.01088625    -0.12700
C1070       C  0.85669512  0.89550397  0.01382767    -0.14300
C1071       C  0.63542072  0.62067090  0.00590576    -0.12700
C1072       C  0.65911237  0.59544199  0.00877075    -0.14300
C1073       C  0.83481557  0.74228627  0.24090675    -0.12800
C1074       C  0.79760520  0.73966798  0.21584329     0.09300
C1075       C  0.79665796  0.73411852  0.16088706    -0.12800
C1076       C  0.83095194  0.73419469  0.13218699    -0.12800
C1077       C  0.86785059  0.73905244  0.15703666     0.09300
C1078       C  0.86924796  0.74230048  0.21209690    -0.12800
H1079       H  0.83709364  0.74537253  0.28331327     0.13300
H1080       H  0.76964101  0.72931862  0.13948706     0.13300
H1081       H  0.82829930  0.73043934  0.08990031     0.13300
H1082       H  0.89683327  0.74548081  0.23290853     0.13300
C1083       C  0.71323211  0.76942118  0.17995859    -0.12800
C1084       C  0.72069828  0.74149874  0.21902239     0.09300
C1085       C  0.68855888  0.71833822  0.23386493    -0.12800
C1086       C  0.65219043  0.72067405  0.20771901    -0.12800
C1087       C  0.64630302  0.74658339  0.16632495     0.09300
C1088       C  0.67716113  0.77130923  0.15340992    -0.12800
H1089       H  0.73571678  0.78961062  0.16932191     0.13300
H1090       H  0.69082141  0.69854721  0.26643638     0.13300
H1091       H  0.62907539  0.70135969  0.21883265     0.13300
H1092       H  0.67347099  0.79204478  0.12196647     0.13300
C1093       C  0.73040880  0.82211152  0.34962707    -0.12800
C1094       C  0.75383820  0.85402130  0.33680997     0.09300
C1095       C  0.77900433  0.84963532  0.29465856    -0.12800
C1096       C  0.78198763  0.81379175  0.26775227    -0.12800
C1097       C  0.76001282  0.78072021  0.28221080     0.09300
C1098       C  0.73270842  0.78665080  0.32205054    -0.12800
H1099       H  0.71023667  0.82453792  0.38155437     0.13300
H1100       H  0.79729962  0.87357366  0.28349155     0.13300
H1101       H  0.80127501  0.81264931  0.23487140     0.13300
H1102       H  0.71334492  0.76339605  0.33253446     0.13300
C1103       C  0.76069484  0.63202931  0.28683902    -0.12800
C1104       C  0.76399895  0.63280834  0.34191926     0.09300
C1105       C  0.76951902  0.66940672  0.36696625    -0.12800
C1106       C  0.76990640  0.70400213  0.33852240    -0.12800
C1107       C  0.76371546  0.70377390  0.28367369     0.09300
C1108       C  0.76100084  0.66684620  0.25823859    -0.12800
H1109       H  0.75711834  0.60468483  0.26590811     0.13300
H1110       H  0.77355895  0.67160750  0.40927097     0.13300
H1111       H  0.77518627  0.73072194  0.36009512     0.13300
H1112       H  0.75760996  0.66512571  0.21581199     0.13300
C1113       C  0.88112919  0.86510111  0.49631334    -0.12700
C1114       C  0.90666442  0.84178313  0.49194117    -0.14300
C1115       C  0.63235915  0.62109721  0.49282195    -0.12700
C1116       C  0.60649603  0.64411799  0.48938518    -0.14300
C1117       C  0.63334512  0.86303076  0.48755793    -0.12700
C1118       C  0.60775266  0.83956161  0.48417195    -0.14300
C1119       C  0.90522374  0.64595853  0.49479154    -0.12700
C1120       C  0.87961422  0.62267708  0.49848112    -0.14300
C1121       C  0.82700313  0.72314738  0.76465753    -0.12800
C1122       C  0.79485618  0.74621571  0.78037761     0.09300
C1123       C  0.80263555  0.77448844  0.81978444    -0.12800
C1124       C  0.83875699  0.77628430  0.84648916    -0.12800
C1125       C  0.86954236  0.75140315  0.83302798     0.09300
C1126       C  0.86351711  0.72559573  0.79065926    -0.12800
H1127       H  0.82451554  0.70317534  0.73167593     0.13300
H1128       H  0.78025726  0.79481803  0.83090042     0.13300
H1129       H  0.84251288  0.79701213  0.87856722     0.13300
H1130       H  0.88656020  0.70624453  0.77886519     0.13300
C1131       C  0.64607030  0.74526149  0.78891613    -0.12800
C1132       C  0.64770156  0.74381861  0.84400601     0.09300
C1133       C  0.68480361  0.74095631  0.86880151    -0.12800
C1134       C  0.71900155  0.74047978  0.83992454    -0.12800
C1135       C  0.71775222  0.74391906  0.78484546     0.09300
C1136       C  0.68039322  0.74505371  0.75995500    -0.12800
H1137       H  0.61835798  0.74684247  0.76815379     0.13300
H1138       H  0.68770419  0.73884694  0.91117701     0.13300
H1139       H  0.74614047  0.73695311  0.86132761     0.13300
H1140       H  0.67788228  0.74666535  0.71749035     0.13300
C1141       C  0.78191921  0.82410179  0.64911884    -0.12800
C1142       C  0.75806397  0.85580523  0.66226603     0.09300
C1143       C  0.73324750  0.85183545  0.70467111    -0.12800
C1144       C  0.73141261  0.81665346  0.73208841    -0.12800
C1145       C  0.75409307  0.78380339  0.71772364     0.09300
C1146       C  0.78067074  0.78923981  0.67708440    -0.12800
H1147       H  0.80173765  0.82630211  0.61682719     0.13300
H1148       H  0.71455267  0.87563286  0.71589148     0.13300
H1149       H  0.71247238  0.81592884  0.76532775     0.13300
H1150       H  0.80027646  0.76608188  0.66636646     0.13300
C1151       C  0.74289475  0.70594099  0.66253708    -0.12800
C1152       C  0.75106398  0.70693613  0.71696983     0.09300
C1153       C  0.75437305  0.67062636  0.74272618    -0.12800
C1154       C  0.75320937  0.63512344  0.71465817    -0.12800
C1155       C  0.74772862  0.63461158  0.65986203     0.09300
C1156       C  0.74151892  0.67063192  0.63466921    -0.12800
H1157       H  0.73719401  0.73221537  0.64095230     0.13300
H1158       H  0.75918672  0.66992225  0.78495463     0.13300
H1159       H  0.75750152  0.60827364  0.73568895     0.13300
H1160       H  0.73583488  0.67181088  0.59263462     0.13300
loop_ 
_geom_bond_atom_site_label_1 
_geom_bond_atom_site_label_2 
_geom_bond_distance 
_geom_bond_site_symmetry_2 
_ccdc_geom_bond_type 
C1          C252   1.571       .  S
C1          C265   1.563       .  S
C1          C275   1.571       .  S
C1          C282   1.562       .  S
O2            C4   1.279       .  A
O2         Zr304   2.413   1_545  S
O3            C4   1.282       .  A
O3          Zr40   2.415       .  S
C4          C245   1.418       .  S
O5            C7   1.304       .  A
O5          Zr17   2.523       .  S
O6            C7   1.282       .  A
O6          Zr41   2.399       .  S
C7          C272   1.499       .  S
O8           C10   1.306       .  A
O8         Zr307   2.533   1_545  S
O9           C10   1.277       .  A
O9          Zr40   2.374       .  S
C10         C285   1.506       .  S
O11          C13   1.280       .  A
O11         Zr14   2.415       .  S
O12          C13   1.283       .  A
O12         Zr41   2.421       .  S
C13         C247   1.421       .  S
Zr14        O292   2.417       .  S
Zr14         O15   2.435       .  S
Zr14         O16   2.438       .  S
Zr14         O21   2.375       .  S
Zr14         O44   2.368       .  S
Zr14        O310   2.374       .  S
Zr14        O336   2.371       .  S
O15         H348   0.990       .  S
O16          H61   0.991       .  S
O16         H347   0.990       .  S
Zr17        O298   2.543       .  S
Zr17         O19   2.434       .  S
Zr17        O308   2.437       .  S
Zr17         O21   2.389       .  S
Zr17         O47   2.390       .  S
Zr17        O310   2.383       .  S
Zr17        O335   2.384       .  S
O18        Zr307   2.436       .  S
O18         H349   0.991       .  S
O18         H352   0.990       .  S
O19         H342   0.990       .  S
O20         Zr40   2.374       .  S
O20        Zr304   2.368   1_545  S
O20        Zr307   2.381   1_545  S
O21         Zr41   2.384       .  S
O21          H48   0.966       .  S
O22          C24   1.303       .  A
O22         Zr34   2.521       .  S
O23          C24   1.281       .  A
O23         Zr41   2.394       .  S
C24         C224   1.496       .  S
O25          C27   1.279       .  A
O25        Zr327   2.411   1_545  S
O26          C27   1.282       .  A
O26         Zr40   2.417       .  S
C27         C250   1.419       .  S
O28          C30   1.280       .  A
O28         Zr37   2.415       .  S
O29          C30   1.284       .  A
O29         Zr41   2.425       .  S
C30         C243   1.424       .  S
O31          C33   1.305       .  A
O31        Zr324   2.527   1_545  S
O32          C33   1.278       .  A
O32         Zr40   2.380       .  S
C33         C234   1.506       .  S
Zr34        O321   2.529       .  S
Zr34         O35   2.435       .  S
Zr34         O36   2.435       .  S
Zr34         O42   2.383       .  S
Zr34         O44   2.385       .  S
Zr34        O333   2.379       .  S
Zr34        O336   2.379       .  S
O35          H55   0.990       .  S
O35          H60   0.990       .  S
O36          H56   0.990       .  S
Zr37        O315   2.415       .  S
Zr37         O38   2.432       .  S
Zr37         O39   2.433       .  S
Zr37         O42   2.375       .  S
Zr37         O47   2.368       .  S
Zr37        O333   2.370       .  S
Zr37        O335   2.369       .  S
O38         H344   0.990       .  S
O39          H53   0.990       .  S
O39          H63   0.990       .  S
Zr40         O43   2.372       .  S
Zr40         O45   2.377       .  S
Zr40         O46   2.377       .  S
Zr41         O42   2.380       .  S
Zr41         O44   2.378       .  S
Zr41         O47   2.378       .  S
O42          H50   0.966       .  S
O43        Zr324   2.378   1_545  S
O43        Zr327   2.370   1_545  S
O45        Zr307   2.383   1_545  S
O45        Zr327   2.372   1_545  S
O45          H49   0.967       .  S
O46        Zr304   2.375   1_545  S
O46        Zr324   2.379   1_545  S
O46          H51   0.966       .  S
H52         O309   0.990       .  S
H54         O328   0.990       .  S
H57         O306   0.990   1_545  S
H58         O305   0.990   1_545  S
H59         O308   0.990       .  S
H62         O308   0.990       .  S
N64          C69   1.348       .  A
N64          C68   1.348       .  A
N64          H96   1.039       .  S
N65          C73   1.348       .  A
N65         C652   1.348   1_455  A
N66          C71   1.347       .  A
N66          C70   1.348       .  A
N66          H97   1.039       .  S
N67          C75   1.347       .  A
N67         C654   1.347   1_455  A
C68          C76   1.388       .  A
C68          C84   1.405       .  A
C69          C85   1.405       .  A
C69          C77   1.388       .  A
C70          C78   1.388       .  A
C70          C87   1.404       .  A
C71          C86   1.404       .  A
C71          C79   1.388       .  A
C72         N645   1.349       .  A
C72          C84   1.407       .  A
C72          C80   1.386       .  A
C73          C87   1.407       .  A
C73          C81   1.387       .  A
C74         N647   1.347       .  A
C74          C82   1.387       .  A
C74          C85   1.406       .  A
C75          C83   1.387       .  A
C75          C86   1.406       .  A
C76          C77   1.374       .  A
C76          H88   1.082       .  S
C77          H89   1.083       .  S
C78          C79   1.374       .  A
C78          H90   1.083       .  S
C79          H91   1.083       .  S
C80         C661   1.375       .  A
C80          H92   1.082       .  S
C81         C660   1.375   1_455  A
C81          H93   1.082       .  S
C82         C663   1.376       .  A
C82          H94   1.083       .  S
C83         C662   1.376   1_455  A
C83          H95   1.083       .  S
C84         C244   1.439       .  S
C85         C249   1.436       .  S
C86         C246   1.434       .  S
C87         C248   1.437       .  S
C98         C204   1.563       .  S
C98         C214   1.568       .  S
C98         C227   1.570       .  S
C98         C237   1.562       .  S
N99         C103   1.351       .  A
N99         C394   1.351       .  A
N99         H131   1.038       .  S
N100        C107   1.346       .  A
N100        C108   1.346       .  A
N101        C105   1.351       .  A
N101        C396   1.350       .  A
N101        H132   1.040       .  S
N102        C109   1.345       .  A
N102        C110   1.345       .  A
C103        C111   1.387   1_554  A
C103        C119   1.410       .  A
C104        N389   1.351   1_546  A
C104        C120   1.409   1_556  A
C104        C112   1.387       .  A
C105        C113   1.387   1_554  A
C105        C122   1.408       .  A
C106        N391   1.351   1_545  A
C106        C121   1.409       .  A
C106        C114   1.387   1_554  A
C107        C119   1.402       .  A
C107        C115   1.388       .  A
C108        C122   1.401       .  A
C108        C116   1.386       .  A
C109        C117   1.388       .  A
C109        C120   1.401       .  A
C110        C118   1.388       .  A
C110        C121   1.401       .  A
C111        C402   1.377       .  A
C111        H123   1.082       .  S
C112        C401   1.377   1_545  A
C112        H124   1.082       .  S
C113        C404   1.376       .  A
C113        H125   1.082       .  S
C114        C403   1.378   1_545  A
C114        H126   1.082       .  S
C115        C116   1.369       .  A
C115        H127   1.082       .  S
C116        H128   1.083       .  S
C117        C118   1.371       .  A
C117        H129   1.083       .  S
C118        H130   1.083       .  S
C119        C200   1.437       .  S
C120        C196   1.435   1_554  S
C121        C202   1.436       .  S
C122        C198   1.438       .  S
O133        C135   1.303       .  A
O133       Zr145   2.520       .  S
O134        C135   1.281       .  A
O134       Zr171   2.391   1_556  S
C135        C262   1.505       .  S
O136        C138   1.279       .  A
O136       Zr728   2.408       .  S
O137        C138   1.283       .  A
O137       Zr172   2.422   1_554  S
C138        C199   1.420       .  S
O139        C141   1.279       .  A
O139       Zr148   2.409       .  S
O140        C141   1.284       .  A
O140       Zr171   2.426       .  S
C141        C197   1.422       .  S
O142        C144   1.306       .  A
O142       Zr725   2.531       .  S
O143        C144   1.279       .  A
O143       Zr172   2.384       .  S
C144        C255   1.497       .  S
Zr145       O722   2.523   1_455  S
Zr145       O146   2.433       .  S
Zr145       O727   2.436       .  S
Zr145       O151   2.388       .  S
Zr145       O177   2.383       .  S
Zr145       O732   2.381   1_455  S
Zr145       O755   2.386   1_455  S
O146        H189   0.990       .  S
O147       Zr725   2.435       .  S
O147        H192   0.989       .  S
O147        H768   0.991       .  S
Zr148       O716   2.404   1_455  S
Zr148       O149   2.436   1_554  S
Zr148       O150   2.434       .  S
Zr148       O151   2.372   1_554  S
Zr148       O176   2.365       .  S
Zr148       O732   2.369   1_454  S
Zr148       O758   2.375   1_455  S
O149        H193   0.991       .  S
O149        H770   0.990       .  S
O150        H183   0.990       .  S
O151       Zr171   2.371   1_556  S
O152       Zr172   2.379       .  S
O152       Zr725   2.384       .  S
O152       Zr728   2.368   1_556  S
O152        H179   0.965       .  S
O153        C155   1.279       .  A
O153       Zr745   2.408       .  S
O154        C155   1.284       .  A
O154       Zr172   2.425       .  S
C155        C195   1.419       .  S
O156        C158   1.303       .  A
O156       Zr168   2.521       .  S
O157        C158   1.280       .  A
O157       Zr171   2.387       .  S
C158        C217   1.494       .  S
O159        C161   1.304       .  A
O159       Zr748   2.522       .  S
O160        C161   1.280       .  A
O160       Zr172   2.386   1_554  S
C161        C207   1.504       .  S
O162        C164   1.280       .  A
O162       Zr165   2.411   1_554  S
O163        C164   1.283       .  A
O163       Zr171   2.419       .  S
C164        C201   1.420       .  S
Zr165       O733   2.412   1_455  S
Zr165       O166   2.438   1_556  S
Zr165       O167   2.434       .  S
Zr165       O174   2.373   1_556  S
Zr165       O177   2.366       .  S
Zr165       O753   2.367   1_456  S
Zr165       O755   2.375   1_455  S
O166        H191   0.990   1_455  S
O166        H766   0.990   1_455  S
O167        H767   0.990       .  S
Zr168       O739   2.527   1_455  S
Zr168       O169   2.433       .  S
Zr168       O170   2.436       .  S
Zr168       O174   2.383       .  S
Zr168       O176   2.385       .  S
Zr168       O753   2.376   1_455  S
Zr168       O758   2.388   1_455  S
O169        H185   0.990       .  S
O170        H194   0.989   1_455  S
O170        H764   0.990   1_455  S
Zr171       O174   2.377       .  S
Zr171       O176   2.377       .  S
Zr171       O177   2.380   1_554  S
Zr172       O173   2.379   1_556  S
Zr172       O175   2.378       .  S
Zr172       O178   2.375   1_556  S
O173       Zr745   2.369   1_554  S
O173       Zr748   2.379       .  S
O173        H181   0.964       .  S
O175       Zr725   2.384       .  S
O175       Zr745   2.375       .  S
O176        H180   0.966       .  S
O177        H182   0.966       .  S
O178       Zr728   2.377       .  S
O178       Zr748   2.386       .  S
H184        O750   0.991       .  S
H186        O746   0.990       .  S
H187        O747   0.990       .  S
H188        O727   0.991       .  S
H190        O729   0.990       .  S
C195        C196   1.197       .  T
C197        C198   1.199       .  T
C199        C200   1.198       .  T
C201        C202   1.198       .  T
C203        C204   1.422       .  A
C203        C208   1.408       .  A
C203        H209   1.083       .  S
C204        C205   1.407       .  A
C205        C206   1.403       .  A
C205        H210   1.080       .  S
C206        C207   1.416       .  A
C206        H211   1.083       .  S
C207        C208   1.402       .  A
C208        H212   1.083       .  S
C213        C214   1.409       .  A
C213        C218   1.402       .  A
C213        H219   1.083       .  S
C214        C215   1.426       .  A
C215        C216   1.410       .  A
C215        H220   1.080       .  S
C216        C217   1.400       .  A
C216        H221   1.083       .  S
C217        C218   1.410       .  A
C218        H222   1.084       .  S
C223        C224   1.410       .  A
C223        C228   1.404       .  A
C223        H229   1.084       .  S
C224        C225   1.400       .  A
C225        C226   1.408       .  A
C225        H230   1.083       .  S
C226        C227   1.425       .  A
C226        H231   1.080       .  S
C227        C228   1.411       .  A
C228        H232   1.083       .  S
C233        C234   1.402       .  A
C233        C238   1.409       .  A
C233        H239   1.083       .  S
C234        C235   1.417       .  A
C235        C236   1.402       .  A
C235        H240   1.083       .  S
C236        C237   1.406       .  A
C236        H241   1.080       .  S
C237        C238   1.422       .  A
C238        H242   1.083       .  S
C243        C244   1.200       .  T
C245        C246   1.197       .  T
C247        C248   1.198       .  T
C249        C250   1.197       .  T
C251        C252   1.426       .  A
C251        C256   1.409       .  A
C251        H257   1.080       .  S
C252        C253   1.411       .  A
C253        C254   1.406       .  A
C253        H258   1.083       .  S
C254        C255   1.411       .  A
C254        H259   1.084       .  S
C255        C256   1.399       .  A
C256        H260   1.083       .  S
C261        C262   1.402       .  A
C261        C266   1.409       .  A
C261        H267   1.083       .  S
C262        C263   1.416       .  A
C263        C264   1.403       .  A
C263        H268   1.083       .  S
C264        C265   1.405       .  A
C264        H269   1.080       .  S
C265        C266   1.423       .  A
C266        H270   1.083       .  S
C271        C272   1.411       .  A
C271        C276   1.406       .  A
C271        H277   1.083       .  S
C272        C273   1.401       .  A
C273        C274   1.409       .  A
C273        H278   1.083       .  S
C274        C275   1.425       .  A
C274        H279   1.080       .  S
C275        C276   1.412       .  A
C276        H280   1.083       .  S
C281        C282   1.404       .  A
C281        C286   1.401       .  A
C281        H287   1.080       .  S
C282        C283   1.423       .  A
C283        C284   1.410       .  A
C283        H288   1.083       .  S
C284        C285   1.402       .  A
C284        H289   1.083       .  S
C285        C286   1.418       .  A
C286        H290   1.083       .  S
C291        C542   1.570       .  S
C291        C555   1.565       .  S
C291        C565   1.571       .  S
C291        C572   1.566       .  S
O292        C294   1.280       .  A
O293        C294   1.282       .  A
O293       Zr330   2.416       .  S
C294        C535   1.421       .  S
O295        C297   1.302       .  A
O295       Zr307   2.517       .  S
O296        C297   1.283       .  A
O296       Zr331   2.402       .  S
C297        C562   1.498       .  S
O298        C300   1.308       .  A
O299        C300   1.278       .  A
O299       Zr330   2.375       .  S
C300        C575   1.510       .  S
O301        C303   1.280       .  A
O301       Zr304   2.412       .  S
O302        C303   1.283       .  A
O302       Zr331   2.419       .  S
C303        C537   1.420       .  S
Zr304       O305   2.434       .  S
Zr304       O306   2.435       .  S
Zr304       O311   2.370       .  S
Zr304       O334   2.369       .  S
O306        H351   0.991   1_565  S
Zr307       O309   2.435       .  S
Zr307       O311   2.387       .  S
Zr307       O337   2.392       .  S
O310       Zr330   2.379       .  S
O311       Zr331   2.382       .  S
O311        H338   0.966       .  S
O312        C314   1.303       .  A
O312       Zr324   2.519       .  S
O313        C314   1.281       .  A
O313       Zr331   2.395       .  S
C314        C514   1.497       .  S
O315        C317   1.280       .  A
O316        C317   1.283       .  A
O316       Zr330   2.423       .  S
C317        C540   1.424       .  S
O318        C320   1.280       .  A
O318       Zr327   2.415       .  S
O319        C320   1.284       .  A
O319       Zr331   2.424       .  S
C320        C533   1.423       .  S
O321        C323   1.305       .  A
O322        C323   1.278       .  A
O322       Zr330   2.377       .  S
C323        C524   1.507       .  S
Zr324       O325   2.434       .  S
Zr324       O326   2.434       .  S
Zr324       O332   2.384       .  S
Zr324       O334   2.385       .  S
O325        H345   0.990       .  S
O325        H350   0.990       .  S
O326        H346   0.990       .  S
Zr327       O328   2.435       .  S
Zr327       O329   2.433       .  S
Zr327       O332   2.372       .  S
Zr327       O337   2.371       .  S
O329        H343   0.989       .  S
O329        H353   0.990       .  S
Zr330       O333   2.369       .  S
Zr330       O335   2.378       .  S
Zr330       O336   2.376       .  S
Zr331       O332   2.383       .  S
Zr331       O334   2.377       .  S
Zr331       O337   2.378       .  S
O332        H340   0.966       .  S
O335        H339   0.967       .  S
O336        H341   0.966       .  S
N354        C359   1.349       .  A
N354        C358   1.349       .  A
N354        H386   1.039       .  S
N355        C942   1.348   1_455  A
N355        C363   1.348       .  A
N356        C361   1.348       .  A
N356        C360   1.348       .  A
N356        H387   1.039       .  S
N357        C944   1.348   1_455  A
N357        C365   1.348       .  A
C358        C366   1.387       .  A
C358        C374   1.404       .  A
C359        C375   1.405       .  A
C359        C367   1.388       .  A
C360        C368   1.388       .  A
C360        C377   1.404       .  A
C361        C376   1.404       .  A
C361        C369   1.388       .  A
C362        N935   1.348       .  A
C362        C374   1.406       .  A
C362        C370   1.386       .  A
C363        C377   1.406       .  A
C363        C371   1.387       .  A
C364        N937   1.348       .  A
C364        C372   1.387       .  A
C364        C375   1.408       .  A
C365        C373   1.386       .  A
C365        C376   1.407       .  A
C366        C367   1.373       .  A
C366        H378   1.083       .  S
C367        H379   1.083       .  S
C368        C369   1.373       .  A
C368        H380   1.083       .  S
C369        H381   1.083       .  S
C370        C951   1.374       .  A
C370        H382   1.082       .  S
C371        C950   1.375   1_455  A
C371        H383   1.082       .  S
C372        C953   1.375       .  A
C372        H384   1.082       .  S
C373        C952   1.375   1_455  A
C373        H385   1.082       .  S
C374        C534   1.438       .  S
C375        C539   1.439       .  S
C376        C536   1.437       .  S
C377        C538   1.436       .  S
C388        C494   1.566       .  S
C388        C504   1.571       .  S
C388        C517   1.571       .  S
C388        C527   1.565       .  S
N389        C393   1.351       .  A
N389        H421   1.040       .  S
N390        C397   1.346       .  A
N390        C398   1.345       .  A
N391        C395   1.351       .  A
N391        H422   1.040       .  S
N392        C399   1.346       .  A
N392        C400   1.346       .  A
C393        C401   1.387   1_554  A
C393        C409   1.409       .  A
C394        C410   1.411       .  A
C394        C402   1.388   1_554  A
C395        C403   1.387   1_554  A
C395        C412   1.410       .  A
C396        C411   1.408       .  A
C396        C404   1.387   1_554  A
C397        C409   1.401       .  A
C397        C405   1.387       .  A
C398        C412   1.401       .  A
C398        C406   1.387       .  A
C399        C407   1.388       .  A
C399        C410   1.403       .  A
C400        C408   1.388       .  A
C400        C411   1.402       .  A
C401        H413   1.082       .  S
C402        H414   1.082       .  S
C403        H415   1.082       .  S
C404        H416   1.082       .  S
C405        C406   1.371       .  A
C405        H417   1.083       .  S
C406        H418   1.083       .  S
C407        C408   1.371       .  A
C407        H419   1.083       .  S
C408        H420   1.083       .  S
C409        C490   1.437       .  S
C410        C486   1.437   1_554  S
C411        C492   1.434       .  S
C412        C488   1.437       .  S
O423        C425   1.305       .  A
O423       Zr435   2.528       .  S
O424        C425   1.281       .  A
O424       Zr461   2.390   1_556  S
C425        C552   1.508       .  S
O426        C428   1.279       .  A
O426      Zr1018   2.411       .  S
O427        C428   1.283       .  A
O427       Zr462   2.419   1_554  S
C428        C489   1.421       .  S
O429        C431   1.279       .  A
O429       Zr438   2.410       .  S
O430        C431   1.283       .  A
O430       Zr461   2.423       .  S
C431        C487   1.422       .  S
O432        C434   1.303       .  A
O432      Zr1015   2.517       .  S
O433        C434   1.280       .  A
O433       Zr462   2.392       .  S
C434        C545   1.494       .  S
Zr435      O1012   2.528   1_455  S
Zr435       O436   2.434       .  S
Zr435      O1017   2.436       .  S
Zr435       O441   2.390       .  S
Zr435      O1022   2.386   1_455  S
Zr435      O1045   2.385   1_455  S
Zr435       O467   2.384       .  S
O436        H479   0.990   1_455  S
O437      Zr1015   2.435       .  S
O437       H1058   0.991       .  S
O437        H482   0.989       .  S
Zr438      O1006   2.406   1_455  S
Zr438       O439   2.435   1_554  S
Zr438       O440   2.437       .  S
Zr438      O1022   2.368   1_454  S
Zr438       O441   2.374   1_554  S
Zr438       O466   2.366       .  S
Zr438      O1048   2.376   1_455  S
O439       H1060   0.990       .  S
O439        H483   0.990       .  S
O440        H473   0.990   1_455  S
O441       Zr461   2.376   1_556  S
O442      Zr1015   2.389       .  S
O442      Zr1018   2.367   1_556  S
O442       Zr462   2.380       .  S
O442        H469   0.965       .  S
O443        C445   1.280       .  A
O443      Zr1035   2.415       .  S
O444        C445   1.283       .  A
O444       Zr462   2.420       .  S
C445        C485   1.421       .  S
O446        C448   1.304       .  A
O446       Zr458   2.526       .  S
O447        C448   1.280       .  A
O447       Zr461   2.387       .  S
C448        C507   1.496       .  S
O449        C451   1.306       .  A
O449      Zr1038   2.529       .  S
O450        C451   1.282       .  A
O450       Zr462   2.396   1_554  S
C451        C497   1.510       .  S
O452        C454   1.279       .  A
O452       Zr455   2.408   1_554  S
O453        C454   1.282       .  A
O453       Zr461   2.415       .  S
C454        C491   1.417       .  S
Zr455      O1023   2.415   1_455  S
Zr455       O456   2.437   1_556  S
Zr455       O457   2.435       .  S
Zr455      O1043   2.365   1_456  S
Zr455       O464   2.372   1_556  S
Zr455       O467   2.368       .  S
Zr455      O1045   2.373   1_455  S
O456       H1056   0.990   1_455  S
O456        H481   0.990   1_455  S
O457       H1057   0.990       .  S
Zr458      O1029   2.523   1_455  S
Zr458       O459   2.434       .  S
Zr458       O460   2.434       .  S
Zr458       O464   2.378       .  S
Zr458      O1043   2.383   1_455  S
Zr458      O1048   2.387   1_455  S
Zr458       O466   2.382       .  S
O459        H475   0.990       .  S
O460       H1054   0.991   1_455  S
O460        H484   0.989   1_455  S
Zr461       O464   2.375       .  S
Zr461       O466   2.377       .  S
Zr461       O467   2.382   1_554  S
Zr462       O463   2.379   1_556  S
Zr462       O465   2.380       .  S
Zr462       O468   2.375   1_556  S
O463      Zr1035   2.366   1_554  S
O463      Zr1038   2.380       .  S
O463        H471   0.964       .  S
O465      Zr1015   2.387       .  S
O465      Zr1035   2.374       .  S
O466        H470   0.966       .  S
O467        H472   0.966       .  S
O468      Zr1018   2.373       .  S
O468      Zr1038   2.387       .  S
H474       O1040   0.991       .  S
H476       O1036   0.990       .  S
H477       O1037   0.990       .  S
H478       O1017   0.991       .  S
H480       O1019   0.990       .  S
C485        C486   1.198       .  T
C487        C488   1.199       .  T
C489        C490   1.198       .  T
C491        C492   1.196       .  T
C493        C494   1.422       .  A
C493        C498   1.411       .  A
C493        H499   1.083       .  S
C494        C495   1.407       .  A
C495        C496   1.405       .  A
C495        H500   1.080       .  S
C496        C497   1.417       .  A
C496        H501   1.083       .  S
C497        C498   1.403       .  A
C498        H502   1.083       .  S
C503        C504   1.411       .  A
C503        C508   1.404       .  A
C503        H509   1.083       .  S
C504        C505   1.426       .  A
C505        C506   1.410       .  A
C505        H510   1.080       .  S
C506        C507   1.400       .  A
C506        H511   1.083       .  S
C507        C508   1.410       .  A
C508        H512   1.084       .  S
C513        C514   1.410       .  A
C513        C518   1.405       .  A
C513        H519   1.084       .  S
C514        C515   1.400       .  A
C515        C516   1.410       .  A
C515        H520   1.083       .  S
C516        C517   1.425       .  A
C516        H521   1.080       .  S
C517        C518   1.412       .  A
C518        H522   1.083       .  S
C523        C524   1.402       .  A
C523        C528   1.410       .  A
C523        H529   1.083       .  S
C524        C525   1.417       .  A
C525        C526   1.403       .  A
C525        H530   1.083       .  S
C526        C527   1.406       .  A
C526        H531   1.080       .  S
C527        C528   1.423       .  A
C528        H532   1.083       .  S
C533        C534   1.199       .  T
C535        C536   1.198       .  T
C537        C538   1.198       .  T
C539        C540   1.200       .  T
C541        C542   1.426       .  A
C541        C546   1.409       .  A
C541        H547   1.080       .  S
C542        C543   1.411       .  A
C543        C544   1.405       .  A
C543        H548   1.083       .  S
C544        C545   1.410       .  A
C544        H549   1.084       .  S
C545        C546   1.399       .  A
C546        H550   1.083       .  S
C551        C552   1.402       .  A
C551        C556   1.409       .  A
C551        H557   1.083       .  S
C552        C553   1.418       .  A
C553        C554   1.405       .  A
C553        H558   1.083       .  S
C554        C555   1.407       .  A
C554        H559   1.080       .  S
C555        C556   1.422       .  A
C556        H560   1.083       .  S
C561        C562   1.409       .  A
C561        C566   1.405       .  A
C561        H567   1.083       .  S
C562        C563   1.401       .  A
C563        C564   1.410       .  A
C563        H568   1.083       .  S
C564        C565   1.425       .  A
C564        H569   1.081       .  S
C565        C566   1.411       .  A
C566        H570   1.083       .  S
C571        C572   1.406       .  A
C571        C576   1.403       .  A
C571        H577   1.080       .  S
C572        C573   1.423       .  A
C573        C574   1.412       .  A
C573        H578   1.083       .  S
C574        C575   1.402       .  A
C574        H579   1.082       .  S
C575        C576   1.419       .  A
C576        H580   1.083       .  S
C581        C832   1.572       .  S
C581        C845   1.564       .  S
C581        C855   1.572       .  S
C581        C862   1.564       .  S
O582        C584   1.279       .  A
O582       Zr884   2.412   1_545  S
O583        C584   1.281       .  A
O583       Zr620   2.411       .  S
C584        C825   1.416       .  S
O585        C587   1.304       .  A
O585       Zr597   2.519       .  S
O586        C587   1.282       .  A
O586       Zr621   2.400       .  S
C587        C852   1.499       .  S
O588        C590   1.305       .  A
O588       Zr887   2.532   1_545  S
O589        C590   1.278       .  A
O589       Zr620   2.377       .  S
C590        C865   1.507       .  S
O591        C593   1.280       .  A
O591       Zr594   2.413       .  S
O592        C593   1.284       .  A
O592       Zr621   2.423       .  S
C593        C827   1.423       .  S
Zr594       O872   2.410       .  S
Zr594       O595   2.433       .  S
Zr594       O596   2.436       .  S
Zr594       O890   2.370       .  S
Zr594       O601   2.373       .  S
Zr594       O624   2.365       .  S
Zr594       O916   2.373       .  S
O595        H928   0.990       .  S
O596        H927   0.990       .  S
O596        H641   0.991       .  S
Zr597       O878   2.531       .  S
Zr597       O888   2.437       .  S
Zr597       O599   2.436       .  S
Zr597       O601   2.391       .  S
Zr597       O890   2.379       .  S
Zr597       O915   2.383       .  S
Zr597       O627   2.391       .  S
O598       Zr887   2.436       .  S
O598        H929   0.990       .  S
O598        H932   0.990       .  S
O599        H922   0.990       .  S
O600       Zr884   2.370   1_545  S
O600       Zr887   2.380   1_545  S
O600       Zr620   2.373       .  S
O601       Zr621   2.381       .  S
O601        H628   0.966       .  S
O602        C604   1.303       .  A
O602       Zr614   2.519       .  S
O603        C604   1.282       .  A
O603       Zr621   2.397       .  S
C604        C804   1.498       .  S
O605        C607   1.280       .  A
O605       Zr907   2.415   1_545  S
O606        C607   1.282       .  A
O606       Zr620   2.414       .  S
C607        C830   1.420       .  S
O608        C610   1.281       .  A
O608       Zr617   2.422       .  S
O609        C610   1.283       .  A
O609       Zr621   2.417       .  S
C610        C823   1.422       .  S
O611        C613   1.305       .  A
O611       Zr904   2.529   1_545  S
O612        C613   1.278       .  A
O612       Zr620   2.376       .  S
C613        C814   1.506       .  S
Zr614       O901   2.533       .  S
Zr614       O615   2.434       .  S
Zr614       O616   2.432       .  S
Zr614       O622   2.385       .  S
Zr614       O913   2.379       .  S
Zr614       O916   2.377       .  S
Zr614       O624   2.382       .  S
O615        H635   0.990       .  S
O615        H640   0.990       .  S
O616        H636   0.990       .  S
Zr617       O895   2.417       .  S
Zr617       O618   2.434       .  S
Zr617       O619   2.436       .  S
Zr617       O913   2.371       .  S
Zr617       O622   2.374       .  S
Zr617       O627   2.372       .  S
Zr617       O915   2.374       .  S
O618        H924   0.990       .  S
O619        H633   0.990       .  S
O619        H643   0.990       .  S
Zr620       O623   2.371       .  S
Zr620       O625   2.376       .  S
Zr620       O626   2.379       .  S
Zr621       O622   2.383       .  S
Zr621       O624   2.372       .  S
Zr621       O627   2.381       .  S
O622        H630   0.966       .  S
O623       Zr904   2.380   1_545  S
O623       Zr907   2.368   1_545  S
O625       Zr887   2.384   1_545  S
O625       Zr907   2.371   1_545  S
O625        H629   0.967       .  S
O626       Zr884   2.375   1_545  S
O626       Zr904   2.382   1_545  S
O626        H631   0.966       .  S
H632        O889   0.990   1_545  S
H634        O908   0.990       .  S
H637        O886   0.990   1_545  S
H638        O885   0.990   1_545  S
H639        O888   0.990       .  S
H642        O888   0.990       .  S
N644        C649   1.349       .  A
N644        C648   1.348       .  A
N644        H676   1.040       .  S
N645        C653   1.348       .  A
N646        C651   1.347       .  A
N646        C650   1.348       .  A
N646        H677   1.039       .  S
N647        C655   1.347       .  A
C648        C656   1.386       .  A
C648        C664   1.403       .  A
C649        C665   1.403       .  A
C649        C657   1.388       .  A
C650        C658   1.388       .  A
C650        C667   1.405       .  A
C651        C666   1.404       .  A
C651        C659   1.388       .  A
C652        C664   1.405       .  A
C652        C660   1.386       .  A
C653        C667   1.408       .  A
C653        C661   1.386       .  A
C654        C662   1.387       .  A
C654        C665   1.406       .  A
C655        C663   1.387       .  A
C655        C666   1.406       .  A
C656        C657   1.373       .  A
C656        H668   1.082       .  S
C657        H669   1.083       .  S
C658        C659   1.374       .  A
C658        H670   1.083       .  S
C659        H671   1.083       .  S
C660        H672   1.082       .  S
C661        H673   1.082       .  S
C662        H674   1.082       .  S
C663        H675   1.083       .  S
C664        C824   1.438       .  S
C665        C829   1.436       .  S
C666        C826   1.433       .  S
C667        C828   1.438       .  S
C678        C784   1.567       .  S
C678        C794   1.570       .  S
C678        C807   1.571       .  S
C678        C817   1.564       .  S
N679        C974   1.351   1_554  A
N679        C683   1.351       .  A
N679        H711   1.039       .  S
N680        C687   1.346       .  A
N680        C688   1.346       .  A
N681        C976   1.349       .  A
N681        C685   1.351       .  A
N681        H712   1.039       .  S
N682        C689   1.346       .  A
N682        C690   1.346       .  A
C683        C691   1.387   1_554  A
C683        C699   1.409       .  A
C684        N969   1.350   1_545  A
C684        C700   1.408       .  A
C684        C692   1.388   1_554  A
C685        C693   1.387   1_554  A
C685        C702   1.409       .  A
C686        N971   1.351   1_545  A
C686        C701   1.410       .  A
C686        C694   1.387   1_554  A
C687        C699   1.401       .  A
C687        C695   1.388       .  A
C688        C702   1.401       .  A
C688        C696   1.387       .  A
C689        C697   1.387       .  A
C689        C700   1.402       .  A
C690        C698   1.388       .  A
C690        C701   1.403       .  A
C691        C982   1.377       .  A
C691        H703   1.082       .  S
C692        C981   1.376   1_545  A
C692        H704   1.082       .  S
C693        C984   1.376       .  A
C693        H705   1.082       .  S
C694        C983   1.378   1_545  A
C694        H706   1.082       .  S
C695        C696   1.370       .  A
C695        H707   1.083       .  S
C696        H708   1.083       .  S
C697        C698   1.370       .  A
C697        H709   1.083       .  S
C698        H710   1.083       .  S
C699        C780   1.435       .  S
C700        C776   1.435       .  S
C701        C782   1.437       .  S
C702        C778   1.437       .  S
O713        C715   1.304       .  A
O713       Zr725   2.524       .  S
O714        C715   1.280       .  A
O714       Zr751   2.385   1_556  S
C715        C842   1.505       .  S
O716        C718   1.278       .  A
O717        C718   1.283       .  A
O717       Zr752   2.419   1_554  S
C718        C779   1.418       .  S
O719        C721   1.279       .  A
O719       Zr728   2.413       .  S
O720        C721   1.283       .  A
O720       Zr751   2.421       .  S
C721        C777   1.421       .  S
O722        C724   1.304       .  A
O723        C724   1.280       .  A
O723       Zr752   2.393       .  S
C724        C835   1.498       .  S
Zr725       O726   2.434       .  S
Zr725       O731   2.386       .  S
Zr725       O757   2.382       .  S
O726        H769   0.990       .  S
O727        H772   0.989       .  S
Zr728       O729   2.438   1_554  S
Zr728       O730   2.436       .  S
Zr728       O731   2.370   1_554  S
Zr728       O756   2.371       .  S
O729        H773   0.991       .  S
O730        H763   0.990       .  S
O731       Zr751   2.374   1_556  S
O732       Zr752   2.375       .  S
O732        H759   0.965       .  S
O733        C735   1.280       .  A
O734        C735   1.283       .  A
O734       Zr752   2.418       .  S
C735        C775   1.419       .  S
O736        C738   1.305       .  A
O736       Zr748   2.527       .  S
O737        C738   1.279       .  A
O737       Zr751   2.384       .  S
C738        C797   1.497       .  S
O739        C741   1.305       .  A
O740        C741   1.281       .  A
O740       Zr752   2.389   1_554  S
C741        C787   1.507       .  S
O742        C744   1.280       .  A
O742       Zr745   2.411   1_554  S
O743        C744   1.284       .  A
O743       Zr751   2.424       .  S
C744        C781   1.422       .  S
Zr745       O746   2.440   1_556  S
Zr745       O747   2.436       .  S
Zr745       O754   2.373   1_556  S
Zr745       O757   2.364       .  S
O746        H771   0.990       .  S
Zr748       O749   2.435       .  S
Zr748       O750   2.433       .  S
Zr748       O754   2.383       .  S
Zr748       O756   2.387       .  S
O749        H765   0.990       .  S
O750        H774   0.989       .  S
Zr751       O754   2.377       .  S
Zr751       O756   2.380       .  S
Zr751       O757   2.376   1_554  S
Zr752       O753   2.379   1_556  S
Zr752       O755   2.380       .  S
Zr752       O758   2.378   1_556  S
O753        H761   0.964       .  S
O756        H760   0.966       .  S
O757        H762   0.965       .  S
C775        C776   1.197   1_556  T
C777        C778   1.198       .  T
C779        C780   1.197       .  T
C781        C782   1.199       .  T
C783        C784   1.422       .  A
C783        C788   1.410       .  A
C783        H789   1.083       .  S
C784        C785   1.407       .  A
C785        C786   1.404       .  A
C785        H790   1.080       .  S
C786        C787   1.417       .  A
C786        H791   1.083       .  S
C787        C788   1.403       .  A
C788        H792   1.083       .  S
C793        C794   1.410       .  A
C793        C798   1.403       .  A
C793        H799   1.083       .  S
C794        C795   1.426       .  A
C795        C796   1.411       .  A
C795        H800   1.080       .  S
C796        C797   1.400       .  A
C796        H801   1.083       .  S
C797        C798   1.411       .  A
C798        H802   1.084       .  S
C803        C804   1.410       .  A
C803        C808   1.404       .  A
C803        H809   1.084       .  S
C804        C805   1.401       .  A
C805        C806   1.410       .  A
C805        H810   1.083       .  S
C806        C807   1.425       .  A
C806        H811   1.081       .  S
C807        C808   1.412       .  A
C808        H812   1.083       .  S
C813        C814   1.402       .  A
C813        C818   1.410       .  A
C813        H819   1.083       .  S
C814        C815   1.417       .  A
C815        C816   1.402       .  A
C815        H820   1.083       .  S
C816        C817   1.406       .  A
C816        H821   1.080       .  S
C817        C818   1.422       .  A
C818        H822   1.083       .  S
C823        C824   1.199       .  T
C825        C826   1.196       .  T
C827        C828   1.199       .  T
C829        C830   1.198       .  T
C831        C832   1.426       .  A
C831        C836   1.410       .  A
C831        H837   1.081       .  S
C832        C833   1.410       .  A
C833        C834   1.405       .  A
C833        H838   1.083       .  S
C834        C835   1.410       .  A
C834        H839   1.083       .  S
C835        C836   1.400       .  A
C836        H840   1.083       .  S
C841        C842   1.402       .  A
C841        C846   1.408       .  A
C841        H847   1.083       .  S
C842        C843   1.417       .  A
C843        C844   1.403       .  A
C843        H848   1.083       .  S
C844        C845   1.406       .  A
C844        H849   1.079       .  S
C845        C846   1.422       .  A
C846        H850   1.083       .  S
C851        C852   1.411       .  A
C851        C856   1.406       .  A
C851        H857   1.083       .  S
C852        C853   1.400       .  A
C853        C854   1.409       .  A
C853        H858   1.083       .  S
C854        C855   1.425       .  A
C854        H859   1.080       .  S
C855        C856   1.411       .  A
C856        H860   1.083       .  S
C861        C862   1.405       .  A
C861        C866   1.402       .  A
C861        H867   1.080       .  S
C862        C863   1.424       .  A
C863        C864   1.411       .  A
C863        H868   1.083       .  S
C864        C865   1.402       .  A
C864        H869   1.083       .  S
C865        C866   1.418       .  A
C866        H870   1.083       .  S
C871       C1122   1.573       .  S
C871       C1135   1.564       .  S
C871       C1145   1.569       .  S
C871       C1152   1.563       .  S
O872        C874   1.279       .  A
O873        C874   1.281       .  A
O873       Zr910   2.412       .  S
C874       C1115   1.417       .  S
O875        C877   1.303       .  A
O875       Zr887   2.518       .  S
O876        C877   1.281       .  A
O876       Zr911   2.394       .  S
C877       C1142   1.495       .  S
O878        C880   1.305       .  A
O879        C880   1.277       .  A
O879       Zr910   2.372       .  S
C880       C1155   1.505       .  S
O881        C883   1.281       .  A
O881       Zr884   2.418       .  S
O882        C883   1.282       .  A
O882       Zr911   2.415       .  S
C883       C1117   1.421       .  S
Zr884       O885   2.434       .  S
Zr884       O886   2.437       .  S
Zr884       O891   2.369       .  S
Zr884       O914   2.370       .  S
O886        H931   0.991   1_565  S
Zr887       O889   2.435       .  S
Zr887       O891   2.389       .  S
Zr887       O917   2.390       .  S
O890       Zr910   2.371       .  S
O891       Zr911   2.383       .  S
O891        H918   0.966       .  S
O892        C894   1.304       .  A
O892       Zr904   2.524       .  S
O893        C894   1.281       .  A
O893       Zr911   2.394       .  S
C894       C1094   1.499       .  S
O895        C897   1.280       .  A
O896        C897   1.282       .  A
O896       Zr910   2.417       .  S
C897       C1120   1.423       .  S
O898        C900   1.280       .  A
O898       Zr907   2.413       .  S
O899        C900   1.283       .  A
O899       Zr911   2.421       .  S
C900       C1113   1.421       .  S
O901        C903   1.306       .  A
O902        C903   1.278       .  A
O902       Zr910   2.374       .  S
C903       C1104   1.506       .  S
Zr904       O905   2.436       .  S
Zr904       O906   2.433       .  S
Zr904       O912   2.379       .  S
Zr904       O914   2.385       .  S
O905        H925   0.990       .  S
O905        H930   0.990       .  S
O906        H926   0.990       .  S
Zr907       O908   2.434       .  S
Zr907       O909   2.436       .  S
Zr907       O912   2.373       .  S
Zr907       O917   2.372       .  S
O909        H923   0.990       .  S
O909        H933   0.990       .  S
Zr910       O913   2.370       .  S
Zr910       O915   2.375       .  S
Zr910       O916   2.376       .  S
Zr911       O912   2.378       .  S
Zr911       O914   2.378       .  S
Zr911       O917   2.380       .  S
O912        H920   0.966       .  S
O915        H919   0.967       .  S
O916        H921   0.966       .  S
N934        C939   1.348       .  A
N934        C938   1.348       .  A
N934        H966   1.039       .  S
N935        C943   1.348       .  A
N936        C941   1.347       .  A
N936        C940   1.348       .  A
N936        H967   1.039       .  S
N937        C945   1.348       .  A
C938        C946   1.388       .  A
C938        C954   1.404       .  A
C939        C955   1.404       .  A
C939        C947   1.388       .  A
C940        C948   1.388       .  A
C940        C957   1.404       .  A
C941        C956   1.404       .  A
C941        C949   1.389       .  A
C942        C954   1.406       .  A
C942        C950   1.386       .  A
C943        C957   1.407       .  A
C943        C951   1.386       .  A
C944        C952   1.387       .  A
C944        C955   1.407       .  A
C945        C953   1.387       .  A
C945        C956   1.407       .  A
C946        C947   1.375       .  A
C946        H958   1.083       .  S
C947        H959   1.083       .  S
C948        C949   1.374       .  A
C948        H960   1.083       .  S
C949        H961   1.083       .  S
C950        H962   1.082       .  S
C951        H963   1.082       .  S
C952        H964   1.082       .  S
C953        H965   1.083       .  S
C954       C1114   1.437       .  S
C955       C1119   1.438       .  S
C956       C1116   1.434       .  S
C957       C1118   1.436       .  S
C968       C1074   1.565       .  S
C968       C1084   1.569       .  S
C968       C1097   1.572       .  S
C968       C1107   1.564       .  S
N969        C973   1.350       .  A
N969       H1001   1.039       .  S
N970        C977   1.346       .  A
N970        C978   1.346       .  A
N971        C975   1.351       .  A
N971       H1002   1.039       .  S
N972        C979   1.346       .  A
N972        C980   1.346       .  A
C973        C981   1.387   1_554  A
C973        C989   1.408       .  A
C974        C990   1.411   1_556  A
C974        C982   1.388       .  A
C975        C983   1.388   1_554  A
C975        C992   1.410       .  A
C976        C991   1.408       .  A
C976        C984   1.388   1_554  A
C977        C989   1.401       .  A
C977        C985   1.387       .  A
C978        C992   1.402       .  A
C978        C986   1.387       .  A
C979        C987   1.388       .  A
C979        C990   1.403       .  A
C980        C988   1.388       .  A
C980        C991   1.403       .  A
C981        H993   1.082       .  S
C982        H994   1.082       .  S
C983        H995   1.083       .  S
C984        H996   1.083       .  S
C985        C986   1.370       .  A
C985        H997   1.083       .  S
C986        H998   1.083       .  S
C987        C988   1.370       .  A
C987        H999   1.083       .  S
C988       H1000   1.083       .  S
C989       C1070   1.434       .  S
C990       C1066   1.439   1_554  S
C991       C1072   1.432       .  S
C992       C1068   1.437       .  S
O1003      C1005   1.304       .  A
O1003     Zr1015   2.525       .  S
O1004      C1005   1.279       .  A
O1004     Zr1041   2.386   1_556  S
C1005      C1132   1.506       .  S
O1006      C1008   1.278       .  A
O1007      C1008   1.283       .  A
O1007     Zr1042   2.418   1_554  S
C1008      C1069   1.418       .  S
O1009      C1011   1.279       .  A
O1009     Zr1018   2.411       .  S
O1010      C1011   1.283       .  A
O1010     Zr1041   2.419       .  S
C1011      C1067   1.421       .  S
O1012      C1014   1.305       .  A
O1013      C1014   1.281       .  A
O1013     Zr1042   2.394       .  S
C1014      C1125   1.499       .  S
Zr1015     O1016   2.434       .  S
Zr1015     O1021   2.386       .  S
Zr1015     O1047   2.379       .  S
O1016      H1059   0.990       .  S
O1017      H1062   0.989       .  S
Zr1018     O1019   2.436   1_554  S
Zr1018     O1020   2.434       .  S
Zr1018     O1021   2.375   1_554  S
Zr1018     O1046   2.365       .  S
O1019      H1063   0.990       .  S
O1020      H1053   0.990       .  S
O1021     Zr1041   2.374   1_556  S
O1022     Zr1042   2.380       .  S
O1022      H1049   0.965       .  S
O1023      C1025   1.280       .  A
O1024      C1025   1.284       .  A
O1024     Zr1042   2.425       .  S
C1025      C1065   1.423       .  S
O1026      C1028   1.304       .  A
O1026     Zr1038   2.526       .  S
O1027      C1028   1.279       .  A
O1027     Zr1041   2.383       .  S
C1028      C1087   1.494       .  S
O1029      C1031   1.304       .  A
O1030      C1031   1.281       .  A
O1030     Zr1042   2.391   1_554  S
C1031      C1077   1.506       .  S
O1032      C1034   1.279   1_556  A
O1032     Zr1035   2.407       .  S
O1033      C1034   1.282       .  A
O1033     Zr1041   2.412       .  S
C1034      C1071   1.415       .  S
Zr1035     O1036   2.436   1_556  S
Zr1035     O1037   2.434       .  S
Zr1035     O1044   2.372   1_556  S
Zr1035     O1047   2.370       .  S
O1036      H1061   0.990       .  S
Zr1038     O1039   2.434       .  S
Zr1038     O1040   2.435       .  S
Zr1038     O1044   2.381       .  S
Zr1038     O1046   2.382       .  S
O1039      H1055   0.990       .  S
O1040      H1064   0.989       .  S
Zr1041     O1044   2.376       .  S
Zr1041     O1046   2.375       .  S
Zr1041     O1047   2.379   1_554  S
Zr1042     O1043   2.380   1_556  S
Zr1042     O1045   2.378       .  S
Zr1042     O1048   2.380   1_556  S
O1043      H1051   0.964       .  S
O1046      H1050   0.966       .  S
O1047      H1052   0.966       .  S
C1065      C1066   1.199       .  T
C1067      C1068   1.198       .  T
C1069      C1070   1.196       .  T
C1071      C1072   1.195       .  T
C1073      C1074   1.422       .  A
C1073      C1078   1.409       .  A
C1073      H1079   1.083       .  S
C1074      C1075   1.407       .  A
C1075      C1076   1.404       .  A
C1075      H1080   1.080       .  S
C1076      C1077   1.417       .  A
C1076      H1081   1.083       .  S
C1077      C1078   1.402       .  A
C1078      H1082   1.083       .  S
C1083      C1084   1.410       .  A
C1083      C1088   1.403       .  A
C1083      H1089   1.083       .  S
C1084      C1085   1.426       .  A
C1085      C1086   1.408       .  A
C1085      H1090   1.080       .  S
C1086      C1087   1.399       .  A
C1086      H1091   1.083       .  S
C1087      C1088   1.410       .  A
C1088      H1092   1.084       .  S
C1093      C1094   1.410       .  A
C1093      C1098   1.405       .  A
C1093      H1099   1.083       .  S
C1094      C1095   1.401       .  A
C1095      C1096   1.410       .  A
C1095      H1100   1.083       .  S
C1096      C1097   1.425       .  A
C1096      H1101   1.080       .  S
C1097      C1098   1.412       .  A
C1098      H1102   1.083       .  S
C1103      C1104   1.402       .  A
C1103      C1108   1.410       .  A
C1103      H1109   1.083       .  S
C1104      C1105   1.417       .  A
C1105      C1106   1.402       .  A
C1105      H1110   1.083       .  S
C1106      C1107   1.405       .  A
C1106      H1111   1.080       .  S
C1107      C1108   1.423       .  A
C1108      H1112   1.083       .  S
C1113      C1114   1.199       .  T
C1115      C1116   1.196       .  T
C1117      C1118   1.198       .  T
C1119      C1120   1.199       .  T
C1121      C1122   1.426       .  A
C1121      C1126   1.411       .  A
C1121      H1127   1.080       .  S
C1122      C1123   1.411       .  A
C1123      C1124   1.406       .  A
C1123      H1128   1.083       .  S
C1124      C1125   1.411       .  A
C1124      H1129   1.083       .  S
C1125      C1126   1.401       .  A
C1126      H1130   1.083       .  S
C1131      C1132   1.401       .  A
C1131      C1136   1.408       .  A
C1131      H1137   1.083       .  S
C1132      C1133   1.417       .  A
C1133      C1134   1.403       .  A
C1133      H1138   1.083       .  S
C1134      C1135   1.406       .  A
C1134      H1139   1.079       .  S
C1135      C1136   1.423       .  A
C1136      H1140   1.083       .  S
C1141      C1142   1.410       .  A
C1141      C1146   1.404       .  A
C1141      H1147   1.083       .  S
C1142      C1143   1.400       .  A
C1143      C1144   1.408       .  A
C1143      H1148   1.083       .  S
C1144      C1145   1.425       .  A
C1144      H1149   1.080       .  S
C1145      C1146   1.411       .  A
C1146      H1150   1.083       .  S
C1151      C1152   1.406       .  A
C1151      C1156   1.401       .  A
C1151      H1157   1.080       .  S
C1152      C1153   1.422       .  A
C1153      C1154   1.409       .  A
C1153      H1158   1.083       .  S
C1154      C1155   1.401       .  A
C1154      H1159   1.083       .  S
C1155      C1156   1.418       .  A
C1156      H1160   1.083       .  S
