geometry optimzed in LAMMPS
_audit_creation_date              2020-12-01 
_audit_creation_method            'lammps2cif' 
_symmetry_space_group_name_H-M    'P1' 
_symmetry_Int_Tables_number       1 
_symmetry_cell_setting            triclinic 
loop_ 
_symmetry_equiv_pos_as_xyz 
  x,y,z 
_cell_length_a                    41.01986185 
_cell_length_b                    41.602601635653734 
_cell_length_c                    41.39259430998759 
_cell_angle_alpha                 89.84866903073635 
_cell_angle_beta                  89.99122115903882 
_cell_angle_gamma                 89.91523715595808 
loop_ 
_atom_site_label 
_atom_site_type_symbol 
_atom_site_fract_x 
_atom_site_fract_y 
_atom_site_fract_z 
_atom_site_charge 
O1          O  0.74229864  0.81411717  0.53573523    -0.57400
C2          C  0.75370996  0.82284033  0.43920187     0.75200
O3          O  0.71671440  0.90618105  0.48871366    -0.58600
C4          C  0.76122992  0.82408804  0.55766319     0.75200
C5          C  0.81260982  0.89716448  0.49796175     0.77600
Cd6        Cd  0.75379114  0.85928121  0.49796362     1.37500
O7          O  0.76453951  0.81055811  0.46505415    -0.57400
O8          O  0.81043843  0.87032889  0.48374802    -0.56200
C9          C  0.69094404  0.89172461  0.49718984     0.77500
O10         O  0.78678612  0.90745000  0.51123251    -0.58600
O11         O  0.74420631  0.85169780  0.44067074    -0.57100
O12         O  0.77586107  0.85012275  0.55183067    -0.57000
O13         O  0.69475081  0.86316511  0.50704778    -0.56200
C14         C  0.75385175  0.78213165  0.68766932    -0.10500
C15         C  0.73756258  0.80832870  0.70124623    -0.04300
C16         C  0.72842434  0.80870054  0.73368260    -0.10400
C17         C  0.73588168  0.78189546  0.75349669     0.10500
C18         C  0.75288242  0.75519180  0.74004088    -0.02200
C19         C  0.76178552  0.75524353  0.70693499     0.10300
C20         C  0.77850954  0.72863622  0.69407242    -0.12200
C21         C  0.78643797  0.70225041  0.71341306    -0.12200
C22         C  0.77797213  0.70164572  0.74624805     0.10300
C23         C  0.76098131  0.72837125  0.75969873    -0.02200
C24         C  0.72693291  0.78103104  0.78623082    -0.12400
C25         C  0.73482323  0.75461104  0.80555888    -0.12400
C26         C  0.75196117  0.72824697  0.79277069     0.10500
C27         C  0.76029070  0.70151499  0.81206568    -0.10400
C28         C  0.77710301  0.67562857  0.79866906    -0.04300
C29         C  0.78589423  0.67506761  0.76620115    -0.10500
H30         H  0.78565706  0.72807434  0.66890100     0.07800
H31         H  0.79936830  0.68233068  0.70250502     0.07800
H32         H  0.71385729  0.80086282  0.79713226     0.07900
H33         H  0.72745439  0.75498393  0.83067651     0.07900
H34         H  0.73153530  0.82882015  0.68606808     0.04400
H35         H  0.78324763  0.65520553  0.81390796     0.04400
C36         C  0.76342914  0.77741658  0.31065594    -0.10500
C37         C  0.77923995  0.80333105  0.29613904    -0.04300
C38         C  0.78237331  0.80577412  0.26271578    -0.10400
C39         C  0.77116802  0.78039266  0.24293094     0.10500
C40         C  0.75533760  0.75356037  0.25745190    -0.02200
C41         C  0.75088862  0.75235879  0.29143624     0.10300
C42         C  0.73400187  0.72633143  0.30521528    -0.12200
C43         C  0.72211492  0.70146922  0.28599609    -0.12200
C44         C  0.72704934  0.70164272  0.25241646     0.10300
C45         C  0.74365557  0.72804852  0.23796106    -0.02200
C46         C  0.77527190  0.78104465  0.20925237    -0.12400
C47         C  0.76475803  0.75544040  0.19018714    -0.12400
C48         C  0.74900554  0.72877297  0.20409750     0.10500
C49         C  0.73852038  0.70259796  0.18514731    -0.10400
C50         C  0.72177588  0.67713653  0.19956130    -0.04300
C51         C  0.71578689  0.67622671  0.23271499    -0.10500
H52         H  0.73001757  0.72495022  0.33104145     0.07800
H53         H  0.70926656  0.68192518  0.29768684     0.07800
H54         H  0.78709912  0.80116957  0.19748815     0.07900
H55         H  0.76881734  0.75677519  0.16437008     0.07900
H56         H  0.78796835  0.82286888  0.31117427     0.04400
H57         H  0.71391428  0.65712647  0.18469600     0.04400
O58         O  0.75944241  0.66701023  0.96655924    -0.57400
C59         C  0.75289884  0.65392255  0.05790586     0.75200
O60         O  0.71760453  0.57064788  0.98588481    -0.58600
C61         C  0.75292988  0.65396119  0.93978752     0.75200
C62         C  0.81486036  0.58478746  0.00353814     0.77600
Cd63       Cd  0.75266163  0.61780569  0.99887369     1.37500
O64         O  0.76332439  0.62537104  0.05614296    -0.57400
O65         O  0.81191226  0.61235089  0.99093416    -0.56200
C66         C  0.69155237  0.58306713  0.99655610     0.77500
O67         O  0.78865102  0.57177384  0.01305536    -0.58600
O68         O  0.74130386  0.66587956  0.03221606    -0.57100
O69         O  0.74631602  0.62427871  0.94040510    -0.57000
O70         O  0.69430606  0.61074333  0.00874439    -0.56200
C71         C  0.77660279  0.17338984  0.22983900    -0.10500
C72         C  0.76596723  0.17365097  0.19794822    -0.04300
C73         C  0.74976623  0.20005570  0.18474008    -0.10400
C74         C  0.74364281  0.22742599  0.20389910     0.10500
C75         C  0.75370300  0.22730651  0.23671977    -0.02200
C76         C  0.77047599  0.20024879  0.24974898     0.10300
C77         C  0.78036437  0.20068864  0.28221103    -0.12200
C78         C  0.77336176  0.22699612  0.30183101    -0.12200
C79         C  0.75632856  0.25371145  0.28956286     0.10300
C80         C  0.74678134  0.25415545  0.25659961    -0.02200
C81         C  0.72764681  0.25462981  0.19132921    -0.12400
C82         C  0.72117421  0.28123744  0.21081648    -0.12400
C83         C  0.73016453  0.28132203  0.24356396     0.10500
C84         C  0.72289035  0.30768199  0.26390840    -0.10400
C85         C  0.73176595  0.30638648  0.29635839    -0.04300
C86         C  0.74831899  0.28008079  0.30937024    -0.10500
H87         H  0.79328888  0.18050700  0.29273487     0.07800
H88         H  0.78115760  0.22617355  0.32681111     0.07800
H89         H  0.71990374  0.25542975  0.16633245     0.07900
H90         H  0.70869429  0.30162559  0.20017303     0.07900
H91         H  0.77077026  0.15284846  0.18286037     0.04400
H92         H  0.72580899  0.32654123  0.31192006     0.04400
C93         C  0.77041372  0.27334783  0.68528280    -0.10500
C94         C  0.78601940  0.29920197  0.70003808    -0.04300
C95         C  0.78921284  0.30110371  0.73349401    -0.10400
C96         C  0.77714791  0.27581906  0.75304990     0.10500
C97         C  0.76124816  0.24926117  0.73822831    -0.02200
C98         C  0.75778629  0.24808048  0.70419205     0.10300
C99         C  0.74149514  0.22197407  0.68996840    -0.12200
C100        C  0.72828167  0.19752843  0.70891448    -0.12200
C101        C  0.73133961  0.19814028  0.74265883     0.10300
C102        C  0.74811004  0.22420203  0.75747664    -0.02200
C103        C  0.78030885  0.27639455  0.78681365    -0.12400
C104        C  0.76792541  0.25142318  0.80574840    -0.12400
C105        C  0.75162608  0.22530169  0.79152626     0.10500
C106        C  0.73831703  0.20028155  0.81037956    -0.10400
C107        C  0.72145900  0.17523039  0.79561079    -0.04300
C108        C  0.71787865  0.17359202  0.76220831    -0.10500
H109        H  0.73870443  0.22035331  0.66401370     0.07800
H110        H  0.71557288  0.17813349  0.69693197     0.07800
H111        H  0.79243125  0.29616526  0.79878297     0.07900
H112        H  0.77082710  0.25291546  0.83170051     0.07900
H113        H  0.79471486  0.31896266  0.68518116     0.04400
H114        H  0.71158438  0.15603003  0.81048967     0.04400
O115        O  0.74983359  0.30944891  0.46353691    -0.57400
C116        C  0.75512463  0.31867456  0.55728877     0.75200
O117        O  0.79070217  0.40512424  0.49545586    -0.58600
C118        C  0.75769810  0.32450775  0.43812507     0.75200
C119        C  0.69305969  0.38866753  0.50249005     0.77600
Cd120      Cd  0.75567517  0.35634986  0.49940334     1.37500
O121        O  0.76854212  0.30839454  0.53183900    -0.57400
O122        O  0.69614893  0.36042441  0.49159896    -0.56200
C123        C  0.81742055  0.39073237  0.50080469     0.77500
O124        O  0.71920578  0.40236971  0.51116021    -0.58600
O125        O  0.74210988  0.34618325  0.55583103    -0.57100
O126        O  0.76304537  0.35426560  0.44110974    -0.57000
O127        O  0.81522802  0.36093217  0.50629716    -0.56200
O128        O  0.74739952  0.16652814  0.03144105    -0.57400
C129        C  0.74474623  0.15416977  0.93903256     0.75200
O130        O  0.77530189  0.07171588  0.98521250    -0.58600
C131        C  0.73821852  0.15317228  0.05735217     0.75200
C132        C  0.67928533  0.08224410  0.99710790     0.77600
Cd133      Cd  0.74018289  0.11805891  0.99778148     1.37500
O134        O  0.75974540  0.12790460  0.94286653    -0.57400
O135        O  0.68185198  0.11003376  0.98484277    -0.56200
C136        C  0.80148947  0.08468194  0.99483835     0.77500
O137        O  0.70527342  0.07048915  0.00866370    -0.58600
O138        O  0.72724272  0.16362407  0.96234945    -0.57100
O139        O  0.73101126  0.12370138  0.05568336    -0.57000
O140        O  0.79868904  0.11224470  0.00737829    -0.56200
O141        O  0.92832761  0.48572078  0.72076282    -0.57400
C142        C  0.91328209  0.48341316  0.81353306     0.75200
O143        O  0.83121013  0.52495466  0.74555149    -0.58600
C144        C  0.91427874  0.49360228  0.69473223     0.75200
C145        C  0.84604560  0.42622142  0.75118600     0.77600
Cd146      Cd  0.87857227  0.48831085  0.75359032     1.37500
O147        O  0.92745498  0.49261233  0.78799944    -0.57400
O148        O  0.87583760  0.42985410  0.74416784    -0.56200
C149        C  0.84578333  0.55042203  0.75393291     0.77500
O150        O  0.83071814  0.45165688  0.75847268    -0.58600
O151        O  0.88320197  0.47711700  0.81122904    -0.57100
O152        O  0.88381498  0.49805368  0.69600208    -0.57000
O153        O  0.87488829  0.54681325  0.76336311    -0.56200
O154        O  0.07661337  0.48203626  0.21790775    -0.57400
C155        C  0.08853765  0.49055082  0.31499780     0.75200
O156        O  0.17119431  0.45837504  0.26383643    -0.58600
C157        C  0.09042378  0.49409658  0.19334627     0.75200
C158        C  0.15444034  0.55533016  0.25364459     0.77600
Cd159      Cd  0.12272603  0.49316539  0.25471223     1.37500
O160        O  0.07371669  0.49952130  0.28968245    -0.57400
O161        O  0.12501458  0.55162527  0.26209813    -0.56200
C162        C  0.15733605  0.43237716  0.25588184     0.77500
O163        O  0.16972780  0.52981495  0.24657522    -0.58600
O164        O  0.11852303  0.48420716  0.31213569    -0.57100
O165        O  0.11883763  0.50502317  0.19745537    -0.57000
O166        O  0.12803357  0.43492877  0.24670238    -0.56200
C167        C  0.93555632  0.51732431  0.99019455    -0.10500
C168        C  0.93453867  0.50966828  0.95747257    -0.04300
C169        C  0.96053102  0.49443072  0.94208440    -0.10400
C170        C  0.98896799  0.48671736  0.95968170     0.10500
C171        C  0.99031778  0.49401982  0.99314056    -0.02200
C172        C  0.96350195  0.50941750  0.00852246     0.10300
C173        C  0.96519883  0.51605747  0.04171229    -0.12200
C174        C  0.99270505  0.50762208  0.05962104    -0.12200
C175        C  0.01944125  0.49237315  0.04488009     0.10300
C176        C  0.01838368  0.48562917  0.01130838    -0.02200
C177        C  0.01578385  0.47163531  0.94491888    -0.12400
C178        C  0.04359384  0.46383257  0.96269970    -0.12400
C179        C  0.04531227  0.47043968  0.99591355     0.10500
C180        C  0.07323670  0.46243516  0.01432021    -0.10400
C181        C  0.07368870  0.46902675  0.04732555    -0.04300
C182        C  0.04735085  0.48361789  0.06277127    -0.10500
H183        H  0.94513513  0.52763858  0.05410132     0.07800
H184        H  0.99285783  0.51308227  0.08518143     0.07800
H185        H  0.01545421  0.46579949  0.91944833     0.07900
H186        H  0.06371893  0.45241596  0.95026077     0.07900
H187        H  0.91289258  0.51568588  0.94360021     0.04400
H188        H  0.09504983  0.46252461  0.06140529     0.04400
C189        C  0.96301955  0.48321932  0.56766431    -0.10500
C190        C  0.93736003  0.46675258  0.55307673    -0.04300
C191        C  0.93760327  0.45950603  0.52027043    -0.10400
C192        C  0.96471426  0.46869106  0.50123240     0.10500
C193        C  0.99144752  0.48477869  0.51604891    -0.02200
C194        C  0.99055440  0.49218986  0.54942217     0.10300
C195        C  0.01706405  0.50828033  0.56362659    -0.12200
C196        C  0.04449696  0.51637087  0.54546087    -0.12200
C197        C  0.04604768  0.50912041  0.51241097     0.10300
C198        C  0.01905734  0.49359023  0.49745833    -0.02200
C199        C  0.96575669  0.46254139  0.46793428    -0.12400
C200        C  0.99275814  0.47154328  0.44955026    -0.12400
C201        C  0.01966471  0.48680140  0.46392814     0.10500
C202        C  0.04743775  0.49526047  0.44578224    -0.10400
C203        C  0.07408426  0.50959932  0.46087174    -0.04300
C204        C  0.07385749  0.51677325  0.49371396    -0.10500
H205        H  0.01694389  0.51435179  0.58904455     0.07800
H206        H  0.06453877  0.52830173  0.55748596     0.07800
H207        H  0.94568690  0.45067889  0.45589046     0.07900
H208        H  0.99254046  0.46618396  0.42397069     0.07900
H209        H  0.91639378  0.45989364  0.56754761     0.04400
H210        H  0.09534876  0.51582815  0.44654409     0.04400
C211        C  0.54654800  0.49067470  0.06227510    -0.10500
C212        C  0.57350181  0.50446844  0.04711603    -0.04300
C213        C  0.57317682  0.51233067  0.01439445    -0.10400
C214        C  0.54530217  0.50564230  0.99563090     0.10500
C215        C  0.51782148  0.49105241  0.01052175    -0.02200
C216        C  0.51832035  0.48363949  0.04406765     0.10300
C217        C  0.49082021  0.46931663  0.05830160    -0.12200
C218        C  0.46325012  0.46224497  0.03988710    -0.12200
C219        C  0.46225361  0.46943508  0.00670533     0.10300
C220        C  0.48972164  0.48413095  0.99188355    -0.02200
C221        C  0.54415069  0.51323043  0.96254902    -0.12400
C222        C  0.51653593  0.50637490  0.94421281    -0.12400
C223        C  0.48920285  0.49172785  0.95838776     0.10500
C224        C  0.46123508  0.48428301  0.94003322    -0.10400
C225        C  0.43444808  0.47001641  0.95497625    -0.04300
C226        C  0.43455346  0.46238387  0.98774669    -0.10500
H227        H  0.49053532  0.46333400  0.08377454     0.07800
H228        H  0.44263569  0.45115573  0.05184037     0.07800
H229        H  0.56472707  0.52435951  0.95056878     0.07900
H230        H  0.51677073  0.51251212  0.91877509     0.07900
H231        H  0.59490977  0.51022432  0.06139936     0.04400
H232        H  0.41316261  0.46412148  0.94056571     0.04400
O233        O  0.42227558  0.47280128  0.78840643    -0.57400
C234        C  0.41050529  0.48249438  0.69411146     0.75200
O235        O  0.32593658  0.44874254  0.74588130    -0.58600
C236        C  0.41131785  0.48808204  0.81246358     0.75200
C237        C  0.33835801  0.54412877  0.75409480     0.77600
Cd238      Cd  0.37430817  0.48412525  0.75354159     1.37500
O239        O  0.42202962  0.49568386  0.71909277    -0.57400
O240        O  0.36739874  0.54186415  0.74403044    -0.56200
C241        C  0.34029019  0.42305763  0.75429486     0.77500
O242        O  0.32505143  0.51808151  0.76293319    -0.58600
O243        O  0.38196037  0.47131976  0.69640246    -0.57100
O244        O  0.38317168  0.50004955  0.80934813    -0.57000
O245        O  0.36954585  0.42615457  0.76337618    -0.56200
C246        C  0.54558619  0.48155505  0.44432617    -0.10500
C247        C  0.57198554  0.46578677  0.45849792    -0.04300
C248        C  0.57193686  0.45713463  0.49104093    -0.10400
C249        C  0.54463280  0.46480827  0.51049786     0.10500
C250        C  0.51748834  0.48085256  0.49629961    -0.02200
C251        C  0.51790137  0.48910691  0.46300513     0.10300
C252        C  0.49083538  0.50480772  0.44934935    -0.12200
C253        C  0.46360790  0.51225582  0.46802830    -0.12200
C254        C  0.46264574  0.50447999  0.50103274     0.10300
C255        C  0.48985487  0.48863254  0.51536322    -0.02200
C256        C  0.54370421  0.45708158  0.54355255    -0.12400
C257        C  0.51655891  0.46490750  0.56238453    -0.12400
C258        C  0.48943654  0.48056597  0.54870533     0.10500
C259        C  0.46175152  0.48858604  0.56733281    -0.10400
C260        C  0.43518362  0.50381013  0.55284877    -0.04300
C261        C  0.43508259  0.51179191  0.52017800    -0.10500
H262        H  0.49049626  0.51139836  0.42403116     0.07800
H263        H  0.44325482  0.52415823  0.45638942     0.07800
H264        H  0.56404025  0.44501055  0.55506392     0.07900
H265        H  0.51689410  0.45855156  0.58776827     0.07900
H266        H  0.59304823  0.45990501  0.44373840     0.04400
H267        H  0.41407878  0.50983955  0.56749004     0.04400
O268        O  0.57558629  0.49921751  0.21805068    -0.57400
C269        C  0.58809915  0.49161319  0.31425455     0.75200
O270        O  0.67308610  0.45720486  0.25066772    -0.58600
C271        C  0.59016479  0.48992645  0.19279530     0.75200
C272        C  0.65491999  0.55343593  0.25431506     0.77600
Cd273      Cd  0.62323558  0.49118520  0.25414187     1.37500
O274        O  0.57428511  0.48284634  0.28842208    -0.57400
O275        O  0.62520902  0.54955489  0.24719744    -0.56200
C276        C  0.65853094  0.43049737  0.25337386     0.77500
O277        O  0.67066153  0.52808236  0.26111173    -0.58600
O278        O  0.61778531  0.49940444  0.31208107    -0.57100
O279        O  0.61979094  0.48206478  0.19596596    -0.57000
O280        O  0.62795796  0.43211380  0.25718328    -0.56200
C281        C  0.27396098  0.30241456  0.77145615    -0.10500
C282        C  0.26745065  0.30074967  0.80441402    -0.04300
C283        C  0.25344475  0.27355419  0.81844994    -0.10400
C284        C  0.24543019  0.24682404  0.79919777     0.10500
C285        C  0.25236256  0.24784567  0.76564605    -0.02200
C286        C  0.26669159  0.27575265  0.75162780     0.10300
C287        C  0.27340646  0.27615101  0.71837097    -0.12200
C288        C  0.26659940  0.24946821  0.69921740    -0.12200
C289        C  0.25264153  0.22164265  0.71268717     0.10300
C290        C  0.24517448  0.22083642  0.74614052    -0.02200
C291        C  0.23087972  0.21922797  0.81254862    -0.12400
C292        C  0.22344840  0.19277871  0.79325816    -0.12400
C293        C  0.23059150  0.19302195  0.76009643     0.10500
C294        C  0.22380251  0.16620872  0.74029647    -0.10400
C295        C  0.23204638  0.16720731  0.70770555    -0.04300
C296        C  0.24611815  0.19432529  0.69372900    -0.10500
H297        H  0.28413290  0.29707286  0.70697646     0.07800
H298        H  0.27242130  0.25075343  0.67373244     0.07800
H299        H  0.22525183  0.21789021  0.83807519     0.07900
H300        H  0.21237442  0.17197052  0.80453556     0.07900
H301        H  0.27354578  0.32113364  0.81959124     0.04400
H302        H  0.22672762  0.14653847  0.69262342     0.04400
O303        O  0.23966122  0.16649647  0.53974875    -0.57400
C304        C  0.25605980  0.16071219  0.44524585     0.75200
O305        O  0.28918955  0.07508480  0.51005103    -0.58600
C306        C  0.25467078  0.15407139  0.56335169     0.75200
C307        C  0.19110971  0.08881230  0.49635609     0.77600
Cd308      Cd  0.25328708  0.12240547  0.50207296     1.37500
O309        O  0.25913182  0.17352792  0.47272516    -0.57400
O310        O  0.19318242  0.11879027  0.50048779    -0.56200
C311        C  0.31551804  0.08934640  0.50280889     0.77500
O312        O  0.21804976  0.07392936  0.49526912    -0.58600
O313        O  0.25302797  0.13046670  0.44437811    -0.57100
O314        O  0.26757268  0.12694096  0.55854480    -0.57000
O315        O  0.31265018  0.11849208  0.49444605    -0.56200
C316        C  0.22073802  0.31034689  0.23829907    -0.10500
C317        C  0.22623129  0.30843062  0.20517881    -0.04300
C318        C  0.24125019  0.28171405  0.19125710    -0.10400
C319        C  0.25160407  0.25592168  0.21089714     0.10500
C320        C  0.24609585  0.25741289  0.24467998    -0.02200
C321        C  0.23054309  0.28471343  0.25851379     0.10300
C322        C  0.22505361  0.28550734  0.29197551    -0.12200
C323        C  0.23447160  0.25983552  0.31155936    -0.12200
C324        C  0.24979585  0.23265579  0.29828212     0.10300
C325        C  0.25580452  0.23139647  0.26459980    -0.02200
C326        C  0.26682701  0.22863691  0.19767749    -0.12400
C327        C  0.27664511  0.20317192  0.21733704    -0.12400
C328        C  0.27116003  0.20398179  0.25077939     0.10500
C329        C  0.28028075  0.17801695  0.27091390    -0.10400
C330        C  0.27398318  0.17959055  0.30389995    -0.04300
C331        C  0.25893597  0.20632826  0.31767874    -0.10500
H332        H  0.21326945  0.30593294  0.30320424     0.07800
H333        H  0.22958793  0.26138729  0.33721698     0.07800
H334        H  0.27113382  0.22670218  0.17195842     0.07900
H335        H  0.28825882  0.18265624  0.20610161     0.07900
H336        H  0.21858658  0.32825828  0.18982353     0.04400
H337        H  0.28079606  0.15944488  0.31922648     0.04400
O338        O  0.27614501  0.32258628  0.04391873    -0.57400
C339        C  0.25022067  0.32147692  0.94490518     0.75200
O340        O  0.22166598  0.40963088  0.00036085    -0.58600
C341        C  0.25086447  0.32255180  0.06127830     0.75200
C342        C  0.31405417  0.39505198  0.00507584     0.77600
Cd343      Cd  0.25381031  0.35900015  0.00229520     1.37500
O344        O  0.25469980  0.30814029  0.97199965    -0.55800
O345        O  0.31199715  0.36798889  0.99139688    -0.56200
C346        C  0.19431466  0.39613542  0.99595443     0.77500
O347        O  0.28792026  0.40589106  0.01717073    -0.58600
O348        O  0.24912163  0.35183073  0.94442207    -0.57100
O349        O  0.22738269  0.33968409  0.05156274    -0.57000
O350        O  0.19482895  0.36575700  0.99455579    -0.56200
O351        O  0.57283865  0.99627736  0.78132613    -0.57400
C352        C  0.58775859  0.98774080  0.68912097     0.75200
O353        O  0.66864836  0.02703954  0.73906824    -0.58600
C354        C  0.58487534  0.98516365  0.80716974     0.75200
C355        C  0.65797333  0.92797118  0.74851094     0.77600
Cd356      Cd  0.62260990  0.98870445  0.74875173     1.37500
O357        O  0.61697198  0.99715936  0.69114745    -0.57400
O358        O  0.62864811  0.93079515  0.73963166    -0.56200
C359        C  0.65313949  0.05208236  0.74732509     0.77500
O360        O  0.67177701  0.95382039  0.75720177    -0.58600
O361        O  0.57446857  0.97840360  0.71502171    -0.57100
O362        O  0.61446867  0.97653056  0.80603822    -0.57000
O363        O  0.62438145  0.04735320  0.75713420    -0.56200
O364        O  0.42577265  0.99749518  0.28350563    -0.57400
C365        C  0.40723466  0.99611526  0.18740959     0.75200
O366        O  0.32694458  0.95850637  0.25342458    -0.58600
C367        C  0.41139322  0.99002701  0.30948936     0.75200
C368        C  0.34486322  0.05639563  0.25206143     0.77600
Cd369      Cd  0.37597390  0.99373687  0.24957712     1.37500
O370        O  0.42242927  0.98660763  0.21226528    -0.57400
O371        O  0.37541409  0.05262213  0.25306449    -0.56200
C372        C  0.34206255  0.93226300  0.24909432     0.77500
O373        O  0.32825073  0.03076463  0.25046656    -0.58600
O374        O  0.37783767  0.00433500  0.19163890    -0.57100
O375        O  0.38103115  0.98524236  0.30750772    -0.57000
O376        O  0.37231378  0.93479288  0.24384649    -0.56200
C377        C  0.53304274  0.98890360  0.93374658    -0.10500
C378        C  0.55911878  0.00480143  0.94822564    -0.04300
C379        C  0.55805846  0.01466201  0.98031927    -0.10400
C380        C  0.53006317  0.00797049  0.99913960     0.10500
C381        C  0.50343623  0.99125072  0.98491267    -0.02200
C382        C  0.50478208  0.98192606  0.95194018     0.10300
C383        C  0.47817928  0.96559510  0.93828940    -0.12200
C384        C  0.45076271  0.95807341  0.95680985    -0.12200
C385        C  0.44901736  0.96673610  0.98954582     0.10300
C386        C  0.47548623  0.98374235  0.00370296    -0.02200
C387        C  0.52798073  0.01736711  0.03162963    -0.12400
C388        C  0.50043315  0.01014959  0.05006015    -0.12400
C389        C  0.47411944  0.99311904  0.03666611     0.10500
C390        C  0.44622039  0.98538275  0.05515948    -0.10400
C391        C  0.42070276  0.96831246  0.04098802    -0.04300
C392        C  0.42158427  0.95888760  0.00871363    -0.10500
H393        H  0.47853777  0.95827092  0.91320968     0.07800
H394        H  0.43093009  0.94530058  0.94533494     0.07800
H395        H  0.54775468  0.03027567  0.04305110     0.07900
H396        H  0.49995538  0.01794708  0.07498368     0.07900
H397        H  0.58064547  0.01016401  0.93392045     0.04400
H398        H  0.39961704  0.96202759  0.05554899     0.04400
C399        C  0.54178407  0.97523519  0.56038807    -0.10500
C400        C  0.56635258  0.95735423  0.54568049    -0.04300
C401        C  0.56515127  0.94964836  0.51299083    -0.10400
C402        C  0.53800896  0.95949959  0.49431688     0.10500
C403        C  0.51274849  0.97777460  0.50914078    -0.02200
C404        C  0.51459504  0.98558535  0.54239358     0.10300
C405        C  0.48961297  0.00390933  0.55662539    -0.12200
C406        C  0.46313713  0.01458039  0.53842634    -0.12200
C407        C  0.46093031  0.00746598  0.50538356     0.10300
C408        C  0.48595314  0.98885039  0.49057200    -0.02200
C409        C  0.53547627  0.95182730  0.46141749    -0.12400
C410        C  0.50893761  0.96247434  0.44316984    -0.12400
C411        C  0.48424705  0.98135377  0.45720475     0.10500
C412        C  0.45761034  0.99282350  0.43893512    -0.10400
C413        C  0.43347398  0.01134585  0.45370473    -0.04300
C414        C  0.43448211  0.01854460  0.48652444    -0.10500
H415        H  0.49042013  0.01021687  0.58197320     0.07800
H416        H  0.44449093  0.02866327  0.55036600     0.07800
H417        H  0.55406152  0.93757213  0.44958925     0.07900
H418        H  0.50802764  0.95602933  0.41786460     0.07900
H419        H  0.58741870  0.95008874  0.55983489     0.04400
H420        H  0.41303196  0.01987700  0.43936875     0.04400
C421        C  0.21573469  0.67864582  0.26878965    -0.10500
C422        C  0.22452014  0.67886981  0.30127458    -0.04300
C423        C  0.24142063  0.70455259  0.31490972    -0.10400
C424        C  0.25007418  0.73127654  0.29563457     0.10500
C425        C  0.24101143  0.73164868  0.26254424    -0.02200
C426        C  0.22370549  0.70524286  0.24903017     0.10300
C427        C  0.21435036  0.70642164  0.21644493    -0.12200
C428        C  0.22160596  0.73313846  0.19741794    -0.12200
C429        C  0.23889109  0.75934291  0.21023524     0.10300
C430        C  0.24897083  0.75858333  0.24300514    -0.02200
C431        C  0.26737381  0.75749531  0.30842837    -0.12400
C432        C  0.27556949  0.78384825  0.28906478    -0.12400
C433        C  0.26653232  0.78492495  0.25635473     0.10500
C434        C  0.27397195  0.81177252  0.23654308    -0.10400
C435        C  0.26364425  0.81205293  0.20449451    -0.04300
C436        C  0.24602123  0.78663508  0.19131406    -0.10500
H437        H  0.20100105  0.68681457  0.20553442     0.07800
H438        H  0.21347863  0.73313199  0.17253691     0.07800
H439        H  0.27463596  0.75779794  0.33357296     0.07900
H440        H  0.28883304  0.80352750  0.29994387     0.07900
H441        H  0.21819325  0.65839939  0.31634635     0.04400
H442        H  0.26922355  0.83275368  0.18944963     0.04400
O443        O  0.27583636  0.66141371  0.53853773    -0.57400
C444        C  0.25398364  0.65752526  0.44320868     0.75200
O445        O  0.28934806  0.57043484  0.49188383    -0.58600
C446        C  0.25428519  0.65644325  0.55979982     0.75200
C447        C  0.19505762  0.58363992  0.50517958     0.77600
Cd448      Cd  0.25554052  0.61944301  0.50155689     1.37500
O449        O  0.24105465  0.66761117  0.46896031    -0.57400
O450        O  0.19781991  0.60981543  0.48980587    -0.56200
C451        C  0.31587894  0.58254265  0.50173827     0.77500
O452        O  0.22102376  0.57257554  0.51760072    -0.58600
O453        O  0.26730844  0.63013532  0.44472814    -0.57100
O454        O  0.23393420  0.63452461  0.55391117    -0.57000
O455        O  0.31418189  0.61105779  0.51210593    -0.56200
C456        C  0.27569846  0.66663740  0.73800144    -0.10500
C457        C  0.27365754  0.66964095  0.70454360    -0.04300
C458        C  0.25962812  0.69657668  0.68996597    -0.10400
C459        C  0.24666522  0.72146729  0.70910220     0.10500
C460        C  0.24910009  0.71920167  0.74317380    -0.02200
C461        C  0.26399035  0.69182155  0.75777768     0.10300
C462        C  0.26702713  0.69060880  0.79152417    -0.12200
C463        C  0.25556350  0.71576800  0.81064797    -0.12200
C464        C  0.24020317  0.74267666  0.79665351     0.10300
C465        C  0.23675287  0.74442483  0.76263635    -0.02200
C466        C  0.23165475  0.74856020  0.69508938    -0.12400
C467        C  0.21916135  0.77317342  0.71425629    -0.12400
C468        C  0.22155179  0.77165187  0.74803387     0.10500
C469        C  0.20948302  0.79670834  0.76777453    -0.10400
C470        C  0.21275891  0.79430921  0.80119508    -0.04300
C471        C  0.22825566  0.76809993  0.81572923    -0.10500
H472        H  0.27847792  0.67026331  0.80333249     0.07800
H473        H  0.25853654  0.71386648  0.83657460     0.07800
H474        H  0.22955958  0.75098454  0.66912625     0.07900
H475        H  0.20774945  0.79352284  0.70242099     0.07900
H476        H  0.28283086  0.65031930  0.68945266     0.04400
H477        H  0.20420225  0.81395444  0.81620981     0.04400
O478        O  0.24645933  0.81146763  0.03593818    -0.57400
C479        C  0.23791179  0.81668120  0.94222797     0.75200
O480        O  0.20358263  0.90542024  0.00150919    -0.58600
C481        C  0.23678400  0.82651415  0.06062929     0.75200
C482        C  0.30055593  0.89079220  0.99474022     0.77600
Cd483      Cd  0.23866810  0.85670476  0.99848741     1.37500
O484        O  0.22743175  0.80639023  0.96902042    -0.57400
O485        O  0.29895782  0.86120126  0.00178721    -0.56200
C486        C  0.17700662  0.89085235  0.99638436     0.77500
O487        O  0.27346759  0.90463459  0.99001692    -0.58600
O488        O  0.24832261  0.84527599  0.94152236    -0.57100
O489        O  0.22885459  0.85560144  0.05648628    -0.57000
O490        O  0.17936242  0.86099434  0.99136245    -0.56200
O491        O  0.07437668  0.99320011  0.70851936    -0.57400
C492        C  0.08004750  0.98992433  0.80119250     0.75200
O493        O  0.16891208  0.94791554  0.74499175    -0.58600
C494        C  0.08997631  0.98609885  0.68318466     0.75200
C495        C  0.15774295  0.04489848  0.74811307     0.77600
Cd496      Cd  0.12105252  0.98520736  0.74506860     1.37500
O497        O  0.07009004  0.97653006  0.77569657    -0.57400
O498        O  0.13002773  0.04308920  0.73476807    -0.56200
C499        C  0.15271425  0.92211300  0.74704469     0.77500
O500        O  0.16915357  0.01871814  0.75898410    -0.58600
O501        O  0.10882214  0.00070313  0.80062670    -0.57100
O502        O  0.11995810  0.97973122  0.68664821    -0.57000
O503        O  0.12217281  0.92564510  0.74902978    -0.56200
O504        O  0.92250293  0.99843349  0.20592817    -0.57400
C505        C  0.90988189  0.99236696  0.30435368     0.75200
O506        O  0.82812212  0.02669085  0.24715542    -0.58600
C507        C  0.90770170  0.98685768  0.18177132     0.75200
C508        C  0.84337610  0.92879840  0.24405973     0.77600
Cd509      Cd  0.87604130  0.99037052  0.24337309     1.37500
O510        O  0.92415916  0.98260969  0.27909639    -0.57400
O511        O  0.87362625  0.93199822  0.24891012    -0.56200
C512        C  0.84375469  0.05236980  0.24146065     0.77500
O513        O  0.82741754  0.95465157  0.24002047    -0.58600
O514        O  0.88027205  0.00026133  0.30117045    -0.57100
O515        O  0.87876237  0.97759143  0.18643210    -0.57000
O516        O  0.87385771  0.04896005  0.23585692    -0.56200
C517        C  0.94598993  0.98885794  0.04987887    -0.10500
C518        C  0.91949144  0.00390966  0.03526008    -0.04300
C519        C  0.92067321  0.01421000  0.00328144    -0.10400
C520        C  0.94878936  0.00821276  0.98455756     0.10500
C521        C  0.97566912  0.99201063  0.99895739    -0.02200
C522        C  0.97452885  0.98286002  0.03197366     0.10300
C523        C  0.00166827  0.96769765  0.04607226    -0.12200
C524        C  0.02930327  0.96083045  0.02780906    -0.12200
C525        C  0.03057775  0.96875643  0.99484684     0.10300
C526        C  0.00368604  0.98487164  0.98035163    -0.02200
C527        C  0.95070524  0.01763163  0.95201085    -0.12400
C528        C  0.97810238  0.01012000  0.93351463    -0.12400
C529        C  0.00454591  0.99334411  0.94715419     0.10500
C530        C  0.03189136  0.98453807  0.92855184    -0.10400
C531        C  0.05798712  0.96843680  0.94299527    -0.04300
C532        C  0.05787058  0.96071248  0.97576072    -0.10500
H533        H  0.00154488  0.96061941  0.07125939     0.07800
H534        H  0.04953393  0.94887466  0.03961182     0.07800
H535        H  0.93074328  0.03029941  0.94050059     0.07900
H536        H  0.97834191  0.01732831  0.90835981     0.07900
H537        H  0.89788480  0.00899151  0.04955285     0.04400
H538        H  0.07885995  0.96169707  0.92835227     0.04400
C539        C  0.95586057  0.99199097  0.43441069    -0.10500
C540        C  0.93047520  0.97559906  0.44962198    -0.04300
C541        C  0.93250605  0.96588710  0.48175234    -0.10400
C542        C  0.96099197  0.97263485  0.49967610     0.10500
C543        C  0.98697537  0.98975888  0.48471725    -0.02200
C544        C  0.98437765  0.99967305  0.45195238     0.10300
C545        C  0.01015796  0.01697782  0.43781230    -0.12200
C546        C  0.03842201  0.02389147  0.45533526    -0.12200
C547        C  0.04184179  0.01364412  0.48752061     0.10300
C548        C  0.01575673  0.99657703  0.50242994    -0.02200
C549        C  0.96433980  0.96241877  0.53185438    -0.12400
C550        C  0.99264449  0.96901819  0.54922955    -0.12400
C551        C  0.01847306  0.98615952  0.53502331     0.10500
C552        C  0.04725767  0.99289832  0.55235123    -0.10400
C553        C  0.07271502  0.00923172  0.53731429    -0.04300
C554        C  0.07068439  0.01955662  0.50536489    -0.10500
H555        H  0.00862314  0.02524573  0.41303386     0.07800
H556        H  0.05773441  0.03710878  0.44343257     0.07800
H557        H  0.94508871  0.94912495  0.54377440     0.07900
H558        H  0.99422260  0.96043125  0.57389373     0.07900
H559        H  0.90880479  0.96958694  0.43583848     0.04400
H560        H  0.09460122  0.01453031  0.55106935     0.04400
C561        C  0.91052136  0.96078125  0.12829638    -0.25900
C562        C  0.92267860  0.98421646  0.14948756    -0.14000
C563        C  0.94696311  0.00576514  0.13861480     0.36600
C564        C  0.95703131  0.00454704  0.10620861    -0.25400
C565        C  0.94299975  0.98261739  0.08473527    -0.14600
C566        C  0.92042552  0.95992464  0.09602488     0.37700
N567        N  0.90646287  0.93698603  0.07430955    -0.88900
H568        H  0.89230127  0.94376231  0.13648504     0.18800
H569        H  0.97400750  0.02230829  0.09703667     0.18800
N570        N  0.95984620  0.02996574  0.15976683    -0.87900
H571        H  0.88118405  0.94024875  0.07424837     0.36200
H572        H  0.91136167  0.91398687  0.08334110     0.41300
H573        H  0.94090512  0.04593712  0.16510794     0.40900
H574        H  0.97781927  0.04342110  0.14799982     0.35800
C575        C  0.91405094  0.01784783  0.35804733    -0.25900
C576        C  0.92636531  0.99521804  0.33607156    -0.14000
C577        C  0.95276060  0.97537467  0.34565753     0.36600
C578        C  0.96476207  0.97740538  0.37728860    -0.25400
C579        C  0.95105636  0.99881111  0.39965202    -0.14600
C580        C  0.92621870  0.02015229  0.38949233     0.37700
N581        N  0.91164038  0.04324775  0.41092450    -0.88900
H582        H  0.89420257  0.03359310  0.35097384     0.18800
H583        H  0.98328546  0.96050456  0.38516958     0.18800
N584        N  0.96644120  0.95156533  0.32470532    -0.87900
H585        H  0.91526664  0.06602761  0.40081004     0.36200
H586        H  0.92345466  0.04363164  0.43324752     0.41300
H587        H  0.97629457  0.96307152  0.30449818     0.40900
H588        H  0.94783776  0.93608917  0.31726322     0.35800
C589        C  0.06567556  0.01803684  0.85175147    -0.25900
C590        C  0.06001627  0.99226142  0.83066949    -0.14000
C591        C  0.03851305  0.96741352  0.84002840     0.36600
C592        C  0.02657865  0.96686761  0.87185693    -0.25400
C593        C  0.03498527  0.99113497  0.89372847    -0.14600
C594        C  0.05319034  0.01775879  0.88307912     0.37700
N595        N  0.06081401  0.04387256  0.90425460    -0.88900
H596        H  0.08135039  0.03770042  0.84441707     0.18800
H597        H  0.01254820  0.94644645  0.88029463     0.18800
N598        N  0.03096431  0.94165784  0.81820162    -0.87900
H599        H  0.07390269  0.03492831  0.92400116     0.36200
H600        H  0.03890216  0.05353106  0.91276600     0.41300
H601        H  0.01701035  0.95138788  0.79942706     0.40900
H602        H  0.01620809  0.92454552  0.82954631     0.35800
C603        C  0.03673803  0.00426253  0.61010748    -0.25900
C604        C  0.05208751  0.98512131  0.58680751    -0.14000
C605        C  0.07748395  0.96433554  0.59600931     0.36600
C606        C  0.08828861  0.96408919  0.62800026    -0.25400
C607        C  0.07447696  0.98469703  0.65105487    -0.14600
C608        C  0.04773464  0.00441939  0.64211594     0.37700
N609        N  0.03278123  0.02640048  0.66420751    -0.88900
H610        H  0.01769820  0.02087837  0.60286113     0.18800
H611        H  0.10846232  0.94851213  0.63451838     0.18800
N612        N  0.09350362  0.94475338  0.57240459    -0.87900
H613        H  0.05070399  0.04180634  0.67322977     0.36200
H614        H  0.02263786  0.01332434  0.68328949     0.41300
H615        H  0.09180520  0.92079518  0.57987390     0.40900
H616        H  0.11817879  0.95104642  0.57200882     0.35800
C617        C  0.14403612  0.94123707  0.00143040    -0.25900
C618        C  0.14508922  0.90789336  0.99576354    -0.14000
C619        C  0.11568156  0.89167545  0.98851808     0.36600
C620        C  0.08674412  0.90922813  0.98452620    -0.25400
C621        C  0.08638928  0.94265201  0.98802699    -0.14600
C622        C  0.11503715  0.95866555  0.99760439     0.37700
N623        N  0.11543434  0.99271523  0.00263920    -0.88900
H624        H  0.16605812  0.95408149  0.00782318     0.18800
H625        H  0.06473038  0.89685863  0.97716932     0.18800
N626        N  0.11509505  0.85752508  0.98427629    -0.87900
H627        H  0.10846367  0.00409983  0.98117396     0.36200
H628        H  0.09816382  0.99819537  0.02037557     0.41300
H629        H  0.10650922  0.85267119  0.96101180     0.40900
H630        H  0.09851972  0.84787122  0.00084667     0.35800
C631        C  0.14802233  0.86214174  0.74917519    -0.25900
C632        C  0.16816848  0.88952717  0.74759851    -0.14000
C633        C  0.20245328  0.88511896  0.74774581     0.36600
C634        C  0.21547815  0.85401622  0.75197848    -0.25400
C635        C  0.19517504  0.82714253  0.75529661    -0.14600
C636        C  0.16114806  0.83123505  0.75303327     0.37700
N637        N  0.13938959  0.80445313  0.75562953    -0.88900
H638        H  0.12175047  0.86476385  0.74843008     0.18800
H639        H  0.24162158  0.85081065  0.75402211     0.18800
N640        N  0.22401750  0.91215373  0.74468427    -0.87900
H641        H  0.14305997  0.79334610  0.77802704     0.36200
H642        H  0.14536879  0.78799222  0.73752748     0.41300
H643        H  0.22126071  0.92127969  0.72123711     0.40900
H644        H  0.24829854  0.90487273  0.74665840     0.35800
C645        C  0.20820035  0.76682935  0.87210624    -0.25900
C646        C  0.23431554  0.77079486  0.85064994    -0.14000
C647        C  0.26331582  0.78516725  0.86128179     0.36600
C648        C  0.26474689  0.79831329  0.89228180    -0.25400
C649        C  0.23766228  0.79692562  0.91287993    -0.14600
C650        C  0.20964934  0.77965351  0.90344425     0.37700
N651        N  0.18206934  0.77713375  0.92473608    -0.88900
H652        H  0.18583595  0.75594510  0.86353766     0.18800
H653        H  0.28652772  0.81103580  0.89970749     0.18800
N654        N  0.29046051  0.78844444  0.83975359    -0.87900
H655        H  0.16360651  0.76351741  0.91406998     0.36200
H656        H  0.17257827  0.80026263  0.92795985     0.41300
H657        H  0.31061813  0.77730579  0.85047371     0.40900
H658        H  0.29567393  0.81291652  0.83725080     0.35800
C659        C  0.28287855  0.68660017  0.60291375    -0.25900
C660        C  0.25368540  0.67400402  0.59061870    -0.14000
C661        C  0.22511758  0.67527721  0.60959466     0.36600
C662        C  0.22686209  0.68628459  0.64141011    -0.25400
C663        C  0.25669840  0.69569871  0.65459252    -0.14600
C664        C  0.28464322  0.69708250  0.63498412     0.37700
N665        N  0.31513108  0.70743952  0.64819631    -0.88900
H666        H  0.30490961  0.68614589  0.58846556     0.18800
H667        H  0.20534909  0.68521659  0.65659161     0.18800
N668        N  0.19453410  0.66434855  0.59707914    -0.87900
H669        H  0.32343032  0.72685264  0.63437722     0.36200
H670        H  0.33191412  0.68866906  0.64576507     0.41300
H671        H  0.17786153  0.68332465  0.59855765     0.40900
H672        H  0.18615789  0.64572274  0.61190612     0.35800
C673        C  0.22678349  0.70994375  0.37264937    -0.25900
C674        C  0.24987911  0.70097783  0.34937603    -0.14000
C675        C  0.27637821  0.68135475  0.35826183     0.36600
C676        C  0.27816739  0.66934240  0.38986792    -0.25400
C677        C  0.25366843  0.67600234  0.41259325    -0.14600
C678        C  0.22834442  0.69768981  0.40416655     0.37700
N679        N  0.20273921  0.70598158  0.42616805    -0.88900
H680        H  0.20607383  0.72458450  0.36560232     0.18800
H681        H  0.29798842  0.65331069  0.39629957     0.18800
N682        N  0.30046062  0.67240111  0.33466722    -0.87900
H683        H  0.21304766  0.71724397  0.44628290     0.36200
H684        H  0.19101697  0.68495713  0.43359782     0.41300
H685        H  0.28915650  0.65781397  0.31749755     0.40900
H686        H  0.31873414  0.65836839  0.34531219     0.35800
C687        C  0.25555084  0.77489704  0.13391802    -0.25900
C688        C  0.23631682  0.79016798  0.15723672    -0.14000
C689        C  0.21391883  0.81427563  0.14781527     0.36600
C690        C  0.21365622  0.82467211  0.11572812    -0.25400
C691        C  0.23500114  0.81142488  0.09283016    -0.14600
C692        C  0.25535200  0.78542749  0.10169291     0.37700
N693        N  0.27731112  0.77130020  0.07866091    -0.88900
H694        H  0.27280430  0.75660289  0.14146784     0.18800
H695        H  0.19735729  0.84407827  0.10892473     0.18800
N696        N  0.19251527  0.82988244  0.17045162    -0.87900
H697        H  0.29009991  0.75213002  0.08908473     0.36200
H698        H  0.29469125  0.78866877  0.07266998     0.41300
H699        H  0.19419558  0.81949591  0.19337951     0.40900
H700        H  0.16859789  0.82586308  0.16274253     0.35800
C701        C  0.36142275  0.89103609  0.99895185    -0.25900
C702        C  0.33238402  0.90811220  0.99282348    -0.14000
C703        C  0.33432830  0.94152649  0.98627531     0.36600
C704        C  0.36452773  0.95732964  0.98900361    -0.25400
C705        C  0.39295466  0.94046542  0.99711487    -0.14600
C706        C  0.39165234  0.90687588  0.00111065     0.37700
N707        N  0.42090841  0.88916130  0.00829073    -0.88900
H708        H  0.36045670  0.86535626  0.00322221     0.18800
H709        H  0.36572320  0.98320942  0.98618979     0.18800
N710        N  0.30563327  0.95958111  0.97789443    -0.87900
H711        H  0.41591475  0.86457328  0.01004599     0.36200
H712        H  0.42915869  0.89638169  0.03102525     0.41300
H713        H  0.29783131  0.95149943  0.95528188     0.40900
H714        H  0.31118274  0.98394261  0.97502781     0.35800
C715        C  0.29112507  0.89947748  0.25314069    -0.25900
C716        C  0.32522931  0.90047183  0.25000796    -0.14000
C717        C  0.34246464  0.87106737  0.24759489     0.36600
C718        C  0.32530813  0.84184467  0.24609812    -0.25400
C719        C  0.29117310  0.84115699  0.24764569    -0.14600
C720        C  0.27395917  0.87032404  0.25225100     0.37700
N721        N  0.23899665  0.87139472  0.25486192    -0.88900
H722        H  0.27743615  0.92162724  0.25562456     0.18800
H723        H  0.33866066  0.81968759  0.24219523     0.18800
N724        N  0.37735039  0.87065514  0.24613627    -0.87900
H725        H  0.23336821  0.88109723  0.27747858     0.36200
H726        H  0.22885860  0.84841686  0.25470600     0.41300
H727        H  0.38431662  0.85945682  0.22462247     0.40900
H728        H  0.38594296  0.85671083  0.26539168     0.35800
C729        C  0.45876233  0.97643989  0.11334978    -0.25900
C730        C  0.44201349  0.99395095  0.08960185    -0.14000
C731        C  0.41662763  0.01474324  0.09874835     0.36600
C732        C  0.40708579  0.01641070  0.13114382    -0.25400
C733        C  0.42217823  0.99722624  0.15480955    -0.14600
C734        C  0.44917655  0.97783460  0.14582752     0.37700
N735        N  0.46610946  0.95789282  0.16856435    -0.88900
H736        H  0.47803432  0.96003928  0.10631096     0.18800
H737        H  0.38678029  0.03184392  0.13751576     0.18800
N738        N  0.39943921  0.03301391  0.07479635    -0.87900
H739        H  0.44948130  0.94197985  0.17908519     0.36200
H740        H  0.47616748  0.97251655  0.18645707     0.41300
H741        H  0.40115820  0.05731585  0.08089577     0.40900
H742        H  0.37484647  0.02647128  0.07572131     0.35800
C743        C  0.41466426  0.96597505  0.36390314    -0.25900
C744        C  0.42841557  0.98666841  0.34081179    -0.14000
C745        C  0.45631969  0.00484947  0.34919491     0.36600
C746        C  0.46783451  0.00403583  0.38105508    -0.25400
C747        C  0.45232253  0.98514593  0.40456152    -0.14600
C748        C  0.42635419  0.96481381  0.39553179     0.37700
N749        N  0.41047983  0.94367154  0.41812710    -0.88900
H750        H  0.39390026  0.95116725  0.35761196     0.18800
H751        H  0.48758806  0.01985323  0.38801345     0.18800
N752        N  0.47218551  0.02576778  0.32662747    -0.87900
H753        H  0.38689288  0.95243571  0.42193930     0.36200
H754        H  0.42225851  0.94332851  0.44048187     0.41300
H755        H  0.45515111  0.04237185  0.31791202     0.40900
H756        H  0.48087059  0.01197377  0.30738872     0.35800
C757        C  0.57440669  0.95828898  0.85954655    -0.25900
C758        C  0.56579294  0.98237506  0.83734225    -0.14000
C759        C  0.54050070  0.00412794  0.84516660     0.36600
C760        C  0.52653715  0.00301823  0.87620385    -0.25400
C761        C  0.53741797  0.98073085  0.89929021    -0.14600
C762        C  0.56038464  0.95704958  0.89028955     0.37700
N763        N  0.57108187  0.93238505  0.91227044    -0.88900
H764        H  0.59301766  0.94083111  0.85335902     0.18800
H765        H  0.50923054  0.02137885  0.88336671     0.18800
N766        N  0.53057751  0.02851488  0.82252474    -0.87900
H767        H  0.59546333  0.93695467  0.91799916     0.36200
H768        H  0.55787038  0.93286984  0.93382682     0.41300
H769        H  0.55020170  0.04423576  0.81941167     0.40900
H770        H  0.51142711  0.04219048  0.83197257     0.35800
C771        C  0.58141300  0.00958561  0.63419189    -0.25900
C772        C  0.57072175  0.98778574  0.65782515    -0.14000
C773        C  0.54610057  0.96530105  0.64999345     0.36600
C774        C  0.53466452  0.96362558  0.61826724    -0.25400
C775        C  0.54715821  0.98398775  0.59432421    -0.14600
C776        C  0.56983484  0.00812920  0.60256747     0.37700
N777        N  0.58286678  0.03037220  0.57923404    -0.88900
H778        H  0.59978197  0.02735234  0.64005139     0.18800
H779        H  0.51744878  0.94497498  0.61178630     0.18800
N780        N  0.53375975  0.94259274  0.67298891    -0.87900
H781        H  0.57669427  0.05354782  0.58684443     0.36200
H782        H  0.57206994  0.02753360  0.55660448     0.41300
H783        H  0.52282404  0.95518050  0.69193709     0.40900
H784        H  0.55320982  0.92900186  0.68199962     0.35800
C785        C  0.29519503  0.09109575  0.24911252    -0.25900
C786        C  0.32924881  0.08881068  0.25295656    -0.14000
C787        C  0.34719309  0.11751787  0.25843477     0.36600
C788        C  0.33077326  0.14683358  0.26158998    -0.25400
C789        C  0.29681498  0.14857316  0.25933012    -0.14600
C790        C  0.27883242  0.12068087  0.25233063     0.37700
N791        N  0.24390983  0.12236190  0.25001433    -0.88900
H792        H  0.28110461  0.06960286  0.24444987     0.18800
H793        H  0.34453248  0.16827209  0.26744809     0.18800
N794        N  0.38191382  0.11782302  0.26202597    -0.87900
H795        H  0.23418454  0.09966630  0.24517389     0.36200
H796        H  0.23824633  0.13691626  0.23015460     0.41300
H797        H  0.39252480  0.10890921  0.24091019     0.40900
H798        H  0.38834219  0.10333240  0.28169235     0.35800
C799        C  0.21747171  0.28376913  0.13668925    -0.25900
C800        C  0.24554507  0.28275210  0.15592237    -0.14000
C801        C  0.27620551  0.28954656  0.14224136     0.36600
C802        C  0.27778361  0.30009286  0.11003987    -0.25400
C803        C  0.24918753  0.30458802  0.09191912    -0.14600
C804        C  0.21897261  0.29453892  0.10466425     0.37700
N805        N  0.18984758  0.29633647  0.08541498    -0.88900
H806        H  0.19404816  0.27814304  0.14742280     0.18800
H807        H  0.30108445  0.30711321  0.09992854     0.18800
N808        N  0.30525598  0.28739227  0.16156977    -0.87900
H809        H  0.16967164  0.28832505  0.09859085     0.36200
H810        H  0.19269386  0.28042835  0.06609773     0.41300
H811        H  0.30370761  0.30481021  0.17966595     0.40900
H812        H  0.32582264  0.29299076  0.14774288     0.35800
C813        C  0.15890431  0.03848551  0.48874204    -0.25900
C814        C  0.15911650  0.07194624  0.49341266    -0.14000
C815        C  0.12883984  0.08829322  0.49610394     0.36600
C816        C  0.09955846  0.07064880  0.49545470    -0.25400
C817        C  0.09969527  0.03706923  0.49311129    -0.14600
C818        C  0.12977214  0.02087186  0.48880182     0.37700
N819        N  0.13181121  0.98643052  0.48635889    -0.88900
H820        H  0.18170992  0.02554181  0.48628911     0.18800
H821        H  0.07660182  0.08288631  0.49964622     0.18800
N822        N  0.12773640  0.12247251  0.50104370    -0.87900
H823        H  0.14247064  0.98106278  0.46407565     0.36200
H824        H  0.10870892  0.97593464  0.48593156     0.41300
H825        H  0.13664279  0.12695113  0.52425878     0.40900
H826        H  0.10364715  0.13074999  0.50089070     0.35800
C827        C  0.34847757  0.03937990  0.51046078    -0.25900
C828        C  0.34767803  0.07254290  0.50363339    -0.14000
C829        C  0.37747139  0.08859730  0.49704818     0.36600
C830        C  0.40655237  0.07071751  0.49497444    -0.25400
C831        C  0.40660248  0.03734089  0.49928555    -0.14600
C832        C  0.37761270  0.02165042  0.50824086     0.37700
N833        N  0.37762263  0.98744008  0.51317204    -0.88900
H834        H  0.32606586  0.02690286  0.51627725     0.18800
H835        H  0.42895784  0.08253596  0.48781452     0.18800
N836        N  0.37820669  0.12272330  0.49153681    -0.87900
H837        H  0.35423768  0.97938645  0.51909551     0.36200
H838        H  0.39240924  0.98259929  0.53318042     0.41300
H839        H  0.36758085  0.12703958  0.46898454     0.40900
H840        H  0.40225214  0.13086664  0.48976512     0.35800
C841        C  0.27687223  0.21390850  0.37378018    -0.25900
C842        C  0.25224409  0.20427863  0.35246268    -0.14000
C843        C  0.22635695  0.18499044  0.36368923     0.36600
C844        C  0.22781708  0.17261265  0.39492867    -0.25400
C845        C  0.25404230  0.17959487  0.41540985    -0.14600
C846        C  0.27824099  0.20176013  0.40534139     0.37700
N847        N  0.30549746  0.21081503  0.42519316    -0.88900
H848        H  0.29672388  0.22869916  0.36494547     0.18800
H849        H  0.20886302  0.15623354  0.40285557     0.18800
N850        N  0.19952600  0.17569773  0.34338702    -0.87900
H851        H  0.32671485  0.20265922  0.41384470     0.36200
H852        H  0.30489451  0.19977750  0.44778881     0.41300
H853        H  0.20063568  0.18704328  0.32089976     0.40900
H854        H  0.17814760  0.18404524  0.35430976     0.35800
C855        C  0.22445768  0.10864464  0.75591324    -0.25900
C856        C  0.20642898  0.13688012  0.75102691    -0.14000
C857        C  0.17232568  0.13506514  0.74777035     0.36600
C858        C  0.15706207  0.10480573  0.74781060    -0.25400
C859        C  0.17518708  0.07619526  0.75100250    -0.14600
C860        C  0.20932165  0.07846085  0.75612428     0.37700
N861        N  0.22958993  0.05066089  0.75995386    -0.88900
H862        H  0.25079120  0.10995729  0.75765335     0.18800
H863        H  0.13089854  0.10356991  0.74448815     0.18800
N864        N  0.15349627  0.16392923  0.74326392    -0.87900
H865        H  0.22675757  0.03591342  0.73971983     0.36200
H866        H  0.22223927  0.03821851  0.78064382     0.41300
H867        H  0.16010837  0.17403119  0.72103581     0.40900
H868        H  0.12868497  0.15854909  0.74167766     0.35800
C869        C  0.22111621  0.29491398  0.86307645    -0.25900
C870        C  0.24720867  0.27545838  0.85341461    -0.14000
C871        C  0.27140617  0.26654285  0.87612559     0.36600
C872        C  0.27074162  0.28033696  0.90696047    -0.25400
C873        C  0.24670019  0.30284932  0.91514221    -0.14600
C874        C  0.22074739  0.30890555  0.89359426     0.37700
N875        N  0.19410429  0.32965576  0.90181191    -0.88900
H876        H  0.20246966  0.30161857  0.84574780     0.18800
H877        H  0.29029896  0.27508782  0.92378882     0.18800
N878        N  0.29799767  0.24547048  0.86808342    -0.87900
H879        H  0.20294183  0.35287385  0.90558237     0.36200
H880        H  0.18361436  0.32129048  0.92325902     0.41300
H881        H  0.29563324  0.23649058  0.84468966     0.40900
H882        H  0.29660282  0.22556745  0.88350134     0.35800
C883        C  0.27897927  0.17227957  0.64933572    -0.25900
C884        C  0.25323751  0.19211856  0.65899448    -0.14000
C885        C  0.23036411  0.20292224  0.63615899     0.36600
C886        C  0.23230335  0.19193997  0.60421537    -0.25400
C887        C  0.25648183  0.16976628  0.59516463    -0.14600
C888        C  0.28087973  0.16109203  0.61759850     0.37700
N889        N  0.30720110  0.14032411  0.60849366    -0.88900
H890        H  0.29649554  0.16380300  0.66703583     0.18800
H891        H  0.21367792  0.19916609  0.58710078     0.18800
N892        N  0.20406684  0.22339568  0.64589948    -0.87900
H893        H  0.30659582  0.12000767  0.62342191     0.36200
H894        H  0.32908558  0.15242351  0.61277296     0.41300
H895        H  0.18214857  0.21165613  0.64079048     0.40900
H896        H  0.20503189  0.24430457  0.63187743     0.35800
C897        C  0.40642725  0.56197709  0.50483796    -0.25900
C898        C  0.40549641  0.52845642  0.50801071    -0.14000
C899        C  0.37510266  0.51242551  0.50603000     0.36600
C900        C  0.34635331  0.53052224  0.50289626    -0.25400
C901        C  0.34707031  0.56425315  0.50172794    -0.14600
C902        C  0.37759725  0.57995810  0.50162715     0.37700
N903        N  0.37949716  0.61419820  0.49851866    -0.88900
H904        H  0.42957724  0.57440627  0.50646552     0.18800
H905        H  0.32317197  0.51806849  0.50257709     0.18800
N906        N  0.37238239  0.47801417  0.50830601    -0.87900
H907        H  0.39356963  0.61947400  0.47812071     0.36200
H908        H  0.39165899  0.62317851  0.51876485     0.41300
H909        H  0.39523465  0.46701831  0.50961905     0.40900
H910        H  0.36185010  0.46991465  0.48682668     0.35800
C911        C  0.53661451  0.46823548  0.38667819    -0.25900
C912        C  0.54887533  0.48961152  0.40976542    -0.14000
C913        C  0.57011730  0.51438980  0.40032994     0.36600
C914        C  0.58116198  0.51560296  0.36833687    -0.25400
C915        C  0.57116541  0.49258263  0.34568068    -0.14600
C916        C  0.54754498  0.46947828  0.35449253     0.37700
N917        N  0.53635035  0.44617632  0.33145268    -0.88900
H918        H  0.52039104  0.44914140  0.39433631     0.18800
H919        H  0.59871012  0.53379770  0.36136852     0.18800
N920        N  0.58188711  0.53691202  0.42387213    -0.87900
H921        H  0.51876316  0.43120497  0.34182814     0.36200
H922        H  0.55615501  0.43145799  0.32553881     0.41300
H923        H  0.56181853  0.54999615  0.43224020     0.40900
H924        H  0.59769984  0.55347833  0.41313125     0.35800
C925        C  0.28951496  0.38994511  0.75152257    -0.25900
C926        C  0.32369771  0.39123373  0.75404615    -0.14000
C927        C  0.34136839  0.36212570  0.75753962     0.36600
C928        C  0.32442295  0.33293950  0.76057454    -0.25400
C929        C  0.29034670  0.33204837  0.75999175    -0.14600
C930        C  0.27263455  0.36068136  0.75494544     0.37700
N931        N  0.23759378  0.36001214  0.75420234    -0.88900
H932        H  0.27578752  0.41200080  0.74840023     0.18800
H933        H  0.33779120  0.31085073  0.76489997     0.18800
N934        N  0.37639606  0.36224695  0.75871808    -0.87900
H935        H  0.22827527  0.38298627  0.74970650     0.36200
H936        H  0.22942225  0.35343362  0.77721847     0.41300
H937        H  0.38478427  0.36960583  0.73604019     0.40900
H938        H  0.38544068  0.33899363  0.76240126     0.35800
C939        C  0.34022261  0.60389150  0.75229256    -0.25900
C940        C  0.32144788  0.57576916  0.75519218    -0.14000
C941        C  0.28719655  0.57865107  0.75772368     0.36600
C942        C  0.27244054  0.60914306  0.75501305    -0.25400
C943        C  0.29135302  0.63685164  0.75024961    -0.14600
C944        C  0.32545976  0.63419475  0.74972560     0.37700
N945        N  0.34509915  0.66223591  0.74495916    -0.88900
H946        H  0.36655932  0.60236482  0.75094295     0.18800
H947        H  0.24608314  0.61097811  0.75483180     0.18800
N948        N  0.26720433  0.55070175  0.76152477    -0.87900
H949        H  0.35896650  0.65891482  0.72401898     0.36200
H950        H  0.36109786  0.66410739  0.76450543     0.41300
H951        H  0.25107632  0.54968409  0.74200248     0.40900
H952        H  0.25346089  0.55346117  0.78261919     0.35800
C953        C  0.45074375  0.50544156  0.65557062    -0.25900
C954        C  0.42911223  0.48061523  0.66369107    -0.14000
C955        C  0.42437760  0.45507437  0.64191637     0.36600
C956        C  0.43929056  0.45601289  0.61150261    -0.25400
C957        C  0.45849237  0.48230218  0.60226495    -0.14600
C958        C  0.46521218  0.50681569  0.62493671     0.37700
N959        N  0.48506292  0.53420834  0.61710541    -0.88900
H960        H  0.45491078  0.52494753  0.67237189     0.18800
H961        H  0.43370672  0.43741594  0.59406585     0.18800
N962        N  0.40382288  0.42851991  0.65030360    -0.87900
H963        H  0.46988016  0.55441457  0.61662377     0.36200
H964        H  0.49550371  0.53212425  0.59420906     0.41300
H965        H  0.41769478  0.40747301  0.64880032     0.40900
H966        H  0.38514002  0.42711913  0.63318505     0.35800
C967        C  0.37685583  0.46241228  0.00551261    -0.25900
C968        C  0.40557289  0.44505736  0.99983228    -0.14000
C969        C  0.40466066  0.41128529  0.99876730     0.36600
C970        C  0.37462526  0.39546071  0.00213107    -0.25400
C971        C  0.34543243  0.41278477  0.00623763    -0.14600
C972        C  0.34674938  0.44664645  0.00908855     0.37700
N973        N  0.31744594  0.46507664  0.01362440    -0.88900
H974        H  0.37777956  0.48844643  0.00561731     0.18800
H975        H  0.37387824  0.36949075  0.00038566     0.18800
N976        N  0.43407284  0.39333538  0.99294876    -0.87900
H977        H  0.32249587  0.48969192  0.01292854     0.36200
H978        H  0.30894820  0.46025587  0.03695213     0.41300
H979        H  0.44216798  0.39889701  0.96964031     0.40900
H980        H  0.42931366  0.36865862  0.99318652     0.35800
C981        C  0.43654477  0.51530163  0.89593467    -0.25900
C982        C  0.45785961  0.49057775  0.90504483    -0.14000
C983        C  0.46785048  0.46767751  0.88179067     0.36600
C984        C  0.45383531  0.46848028  0.85087263    -0.25400
C985        C  0.42985111  0.49129939  0.84292329    -0.14600
C986        C  0.42239160  0.51581677  0.86521090     0.37700
N987        N  0.39965165  0.54075238  0.85716107    -0.88900
H988        H  0.42882621  0.53287847  0.91366584     0.18800
H989        H  0.46027119  0.44989270  0.83371036     0.18800
N990        N  0.49028643  0.44212414  0.88926404    -0.87900
H991        H  0.41147556  0.56285826  0.85964318     0.36200
H992        H  0.38053033  0.53996883  0.87384888     0.41300
H993        H  0.49902352  0.44385534  0.91285921     0.40900
H994        H  0.51053722  0.44487862  0.87417261     0.35800
C995        C  0.53932683  0.50969461  0.11855765    -0.25900
C996        C  0.54966945  0.48537774  0.09747486    -0.14000
C997        C  0.57032447  0.46084545  0.10889279     0.36600
C998        C  0.58239824  0.46240993  0.14053272    -0.25400
C999        C  0.57380430  0.48779269  0.16110546    -0.14600
C1000       C  0.55122304  0.51118629  0.15043263     0.37700
N1001       N  0.54203089  0.53733211  0.17118741    -0.88900
H1002       H  0.52391939  0.52882318  0.10936185     0.18800
H1003       H  0.59929952  0.44416627  0.14893427     0.18800
N1004       N  0.58037219  0.43550454  0.08754807    -0.87900
H1005       H  0.52518788  0.55233831  0.15963188     0.36200
H1006       H  0.56284679  0.55121570  0.17530566     0.41300
H1007       H  0.59603950  0.41953222  0.09950023     0.40900
H1008       H  0.55958277  0.42243278  0.08138130     0.35800
C1009       C  0.10387933  0.56704074  0.50377376    -0.25900
C1010       C  0.10318914  0.53346988  0.50620787    -0.14000
C1011       C  0.13261222  0.51660972  0.51228583     0.36600
C1012       C  0.16219018  0.53360454  0.51332971    -0.25400
C1013       C  0.16315151  0.56697266  0.50812566    -0.14600
C1014       C  0.13346074  0.58389308  0.50470767     0.37700
N1015       N  0.13320435  0.61819324  0.50159273    -0.88900
H1016       H  0.08149302  0.58009269  0.49898665     0.18800
H1017       H  0.18470582  0.52034697  0.51666104     0.18800
N1018       N  0.13357829  0.48222332  0.51582675    -0.87900
H1019       H  0.11896304  0.62758443  0.52028458     0.36200
H1020       H  0.12200159  0.62409937  0.47967433     0.41300
H1021       H  0.11021320  0.47235181  0.51517428     0.40900
H1022       H  0.14274773  0.47718300  0.53886580     0.35800
C1023       C  0.13170149  0.46387658  0.99899751    -0.25900
C1024       C  0.10261583  0.44633048  0.00111152    -0.14000
C1025       C  0.10333073  0.41276512  0.99713968     0.36600
C1026       C  0.13350366  0.39711504  0.99336079    -0.25400
C1027       C  0.16304660  0.41434259  0.99392305    -0.14600
C1028       C  0.16190740  0.44832888  0.99492786     0.37700
N1029       N  0.19134088  0.46692460  0.99285332    -0.88900
H1030       H  0.13090729  0.48973250  0.00205214     0.18800
H1031       H  0.13395716  0.37113761  0.99172235     0.18800
N1032       N  0.07355717  0.39460586  0.99844457    -0.87900
H1033       H  0.18620763  0.49147244  0.99471950     0.36200
H1034       H  0.20104543  0.46342768  0.96976058     0.41300
H1035       H  0.06405991  0.39669458  0.02178874     0.40900
H1036       H  0.07822031  0.37017508  0.99476716     0.35800
C1037       C  0.22293497  0.36710819  0.25634832    -0.25900
C1038       C  0.20416295  0.33977553  0.24989174    -0.14000
C1039       C  0.17000241  0.34236099  0.24835954     0.36600
C1040       C  0.15528745  0.37265548  0.25197965    -0.25400
C1041       C  0.17407026  0.40057569  0.25660911    -0.14600
C1042       C  0.20829579  0.39751051  0.26002300     0.37700
N1043       N  0.22827242  0.42528520  0.26567303    -0.88900
H1044       H  0.24925193  0.36487935  0.25707779     0.18800
H1045       H  0.12902411  0.37457073  0.24997577     0.18800
N1046       N  0.15050902  0.31434077  0.24213977    -0.87900
H1047       H  0.25296383  0.41902779  0.26568037     0.36200
H1048       H  0.22306381  0.43348886  0.28897087     0.41300
H1049       H  0.15585149  0.30640970  0.21878811     0.40900
H1050       H  0.12571564  0.32022418  0.24227646     0.35800
C1051       C  0.15144825  0.61404170  0.26458302    -0.25900
C1052       C  0.16963550  0.58789309  0.25273637    -0.14000
C1053       C  0.20162149  0.59378625  0.24099627     0.36600
C1054       C  0.21511918  0.62463590  0.24357839    -0.25400
C1055       C  0.19755661  0.64998063  0.25753586    -0.14600
C1056       C  0.16487198  0.64487066  0.26705297     0.37700
N1057       N  0.14504943  0.67001651  0.28060919    -0.88900
H1058       H  0.12671986  0.61044726  0.27304718     0.18800
H1059       H  0.24023296  0.62840621  0.23636251     0.18800
N1060       N  0.22137556  0.56902581  0.22706572    -0.87900
H1061       H  0.12483579  0.67301239  0.26552403     0.36200
H1062       H  0.15717417  0.69206347  0.28051779     0.41300
H1063       H  0.20887934  0.55910278  0.20748666     0.40900
H1064       H  0.22563645  0.55126367  0.24446497     0.35800
C1065       C  0.07187716  0.51523424  0.10635815    -0.25900
C1066       C  0.05122476  0.48997189  0.09760902    -0.14000
C1067       C  0.04032313  0.46801676  0.12145106     0.36600
C1068       C  0.05208773  0.47088388  0.15311879    -0.25400
C1069       C  0.07477743  0.49476298  0.16125646    -0.14600
C1070       C  0.08385721  0.51774877  0.13785110     0.37700
N1071       N  0.10575262  0.54334891  0.14575623    -0.88900
H1072       H  0.08027017  0.53204555  0.08811411     0.18800
H1073       H  0.04479001  0.45323294  0.17100568     0.18800
N1074       N  0.01893104  0.44165798  0.11414417    -0.87900
H1075       H  0.09396219  0.56513379  0.14093573     0.36200
H1076       H  0.12602289  0.54171902  0.13051626     0.41300
H1077       H  0.01183931  0.44180609  0.08993907     0.40900
H1078       H  0.99764313  0.44484212  0.12765857     0.35800
C1079       C  0.04934474  0.51089417  0.35613983    -0.25900
C1080       C  0.07236463  0.48776978  0.34663905    -0.14000
C1081       C  0.08225401  0.46371890  0.36868860     0.36600
C1082       C  0.07124497  0.46499265  0.40064959    -0.25400
C1083       C  0.05053727  0.48967924  0.41081831    -0.14600
C1084       C  0.03858850  0.51231617  0.38837427     0.37700
N1085       N  0.01684586  0.53738156  0.39877782    -0.88900
H1086       H  0.04154033  0.52911809  0.33905235     0.18800
H1087       H  0.08027762  0.44776993  0.41820505     0.18800
N1088       N  0.10425293  0.43868795  0.35872410    -0.87900
H1089       H  0.01023955  0.55199699  0.37927758     0.36200
H1090       H  0.02956113  0.55202111  0.41495658     0.41300
H1091       H  0.09231239  0.42499920  0.34121833     0.40900
H1092       H  0.10938619  0.42315265  0.37798144     0.35800
C1093       C  0.93282477  0.46256647  0.90027718    -0.25900
C1094       C  0.95560109  0.48647684  0.90770200    -0.14000
C1095       C  0.96772981  0.50658905  0.88308009     0.36600
C1096       C  0.95550100  0.50333836  0.85153449    -0.25400
C1097       C  0.93046294  0.48135308  0.84477678    -0.14600
C1098       C  0.92003078  0.45979222  0.86902852     0.37700
N1099       N  0.89573613  0.43590225  0.86209924    -0.88900
H1100       H  0.92354065  0.44734781  0.91947395     0.18800
H1101       H  0.96373273  0.51965846  0.83280034     0.18800
N1102       N  0.99099393  0.53128080  0.89058370    -0.87900
H1103       H  0.89042181  0.42236015  0.88275692     0.36200
H1104       H  0.90572060  0.41998851  0.84526908     0.41300
H1105       H  0.97958107  0.54778399  0.90591205     0.40900
H1106       H  0.99746277  0.54396169  0.86972554     0.35800
C1107       C  0.95822237  0.47531374  0.65812014    -0.25900
C1108       C  0.93212180  0.49628437  0.66410482    -0.14000
C1109       C  0.92144140  0.51732433  0.63961600     0.36600
C1110       C  0.93495588  0.51500776  0.60876823    -0.25400
C1111       C  0.95851260  0.49160696  0.60186587    -0.14600
C1112       C  0.97132746  0.47232978  0.62705622     0.37700
N1113       N  0.99571354  0.44805870  0.62166168    -0.88900
H1114       H  0.96681017  0.45935916  0.67704413     0.18800
H1115       H  0.92522533  0.52987112  0.58947437     0.18800
N1116       N  0.89620069  0.54036937  0.64571917    -0.87900
H1117       H  0.01622568  0.45431434  0.63524991     0.36200
H1118       H  0.00322910  0.44746742  0.59760857     0.41300
H1119       H  0.87694524  0.53581784  0.62983561     0.40900
H1120       H  0.90539058  0.56322256  0.64045335     0.35800
C1121       C  0.61496395  0.01580627  0.00078010    -0.25900
C1122       C  0.58684521  0.03284528  0.99189635    -0.14000
C1123       C  0.58866418  0.06628559  0.98700047     0.36600
C1124       C  0.61883825  0.08196279  0.99026045    -0.25400
C1125       C  0.64751526  0.06480936  0.99762226    -0.14600
C1126       C  0.64527927  0.03137809  0.00392508     0.37700
N1127       N  0.67388434  0.01298571  0.01186032    -0.88900
H1128       H  0.61348843  0.98995731  0.00374376     0.18800
H1129       H  0.62011718  0.10760908  0.98585729     0.18800
N1130       N  0.56006858  0.08395879  0.97746096    -0.87900
H1131       H  0.66830850  0.98852264  0.01353783     0.36200
H1132       H  0.68135812  0.01999752  0.03493355     0.41300
H1133       H  0.55327383  0.07606361  0.95447058     0.40900
H1134       H  0.56537782  0.10843152  0.97518315     0.35800
C1135       C  0.83413708  0.03572046  0.98266707    -0.25900
C1136       C  0.83348285  0.06824115  0.99184345    -0.14000
C1137       C  0.86323542  0.08391936  0.99917199     0.36600
C1138       C  0.89239458  0.06618365  0.99906255    -0.25400
C1139       C  0.89242573  0.03325577  0.99225769    -0.14600
C1140       C  0.86309831  0.01801820  0.98350693     0.37700
N1141       N  0.86184250  0.98421003  0.97716446    -0.88900
H1142       H  0.81171313  0.02338162  0.97663856     0.18800
H1143       H  0.91493499  0.07755024  0.00649707     0.18800
N1144       N  0.86372753  0.11733304  0.00795567    -0.87900
H1145       H  0.86942849  0.97185200  0.99787698     0.36200
H1146       H  0.87822956  0.97911631  0.95852696     0.41300
H1147       H  0.85714682  0.13061106  0.98750801     0.40900
H1148       H  0.88735014  0.12457781  0.01407291     0.35800
C1149       C  0.65978935  0.43822179  0.51122506    -0.25900
C1150       C  0.66084234  0.40512712  0.50447040    -0.14000
C1151       C  0.63122416  0.38883417  0.49850388     0.36600
C1152       C  0.60175306  0.40604099  0.49783777    -0.25400
C1153       C  0.60110648  0.43938700  0.50251082    -0.14600
C1154       C  0.63048995  0.45561612  0.50978785     0.37700
N1155       N  0.63173381  0.48981199  0.51459894    -0.88900
H1156       H  0.68214870  0.45113332  0.51619129     0.18800
H1157       H  0.57946302  0.39359143  0.49148911     0.18800
N1158       N  0.63090630  0.35502264  0.49207683    -0.87900
H1159       H  0.64500062  0.49972787  0.49543165     0.36200
H1160       H  0.60856269  0.50016063  0.51398082     0.41300
H1161       H  0.62071477  0.35152329  0.46919530     0.40900
H1162       H  0.61573259  0.34397101  0.50907235     0.35800
C1163       C  0.84942344  0.44172138  0.50039230    -0.25900
C1164       C  0.84929854  0.40794990  0.50115392    -0.14000
C1165       C  0.87950991  0.39144760  0.50324387     0.36600
C1166       C  0.90857660  0.40909358  0.50678613    -0.25400
C1167       C  0.90830017  0.44276466  0.50767630    -0.14600
C1168       C  0.87840281  0.45929030  0.50351070     0.37700
N1169       N  0.87632752  0.49381407  0.50369670    -0.88900
H1170       H  0.82664013  0.45478550  0.49836343     0.18800
H1171       H  0.93146066  0.39651586  0.51034705     0.18800
N1172       N  0.88063909  0.35691083  0.50259803    -0.87900
H1173       H  0.86685358  0.50099337  0.48134783     0.36200
H1174       H  0.89930454  0.50438622  0.50536329     0.41300
H1175       H  0.90457928  0.34867378  0.50542057     0.40900
H1176       H  0.87316755  0.34963704  0.47961322     0.35800
C1177       C  0.78338722  0.35821348  0.74887056    -0.25900
C1178       C  0.80373798  0.33121565  0.74612856    -0.14000
C1179       C  0.83787831  0.33531814  0.74780320     0.36600
C1180       C  0.85077884  0.36644230  0.75003042    -0.25400
C1181       C  0.83055771  0.39379815  0.75095021    -0.14600
C1182       C  0.79632982  0.38946941  0.75125041     0.37700
N1183       N  0.77476135  0.41669812  0.75262259    -0.88900
H1184       H  0.75723183  0.35500272  0.74705958     0.18800
H1185       H  0.87703974  0.36920031  0.75045632     0.18800
N1186       N  0.86018662  0.30867290  0.74599865    -0.87900
H1187       H  0.75045241  0.40920401  0.75363180     0.36200
H1188       H  0.77734541  0.42943707  0.73097458     0.41300
H1189       H  0.84788041  0.28676077  0.74491860     0.40900
H1190       H  0.87348769  0.30822194  0.76753981     0.35800
C1191       C  0.66676905  0.14276208  0.75554871    -0.25900
C1192       C  0.70032588  0.14500063  0.74978367    -0.14000
C1193       C  0.71763168  0.11747996  0.73990185     0.36600
C1194       C  0.70133829  0.08774377  0.73795019    -0.25400
C1195       C  0.66811311  0.08483361  0.74610392    -0.14600
C1196       C  0.65049484  0.11327010  0.75383002     0.37700
N1197       N  0.61633245  0.11314152  0.76098690    -0.88900
H1198       H  0.65347491  0.16385872  0.76348989     0.18800
H1199       H  0.71508689  0.06650195  0.73136868     0.18800
N1200       N  0.75211344  0.11944029  0.73404002    -0.87900
H1201       H  0.61228157  0.09925968  0.78166959     0.36200
H1202       H  0.60379653  0.10331750  0.74137824     0.41300
H1203       H  0.75558541  0.13406317  0.71376185     0.40900
H1204       H  0.76150651  0.09685805  0.72807670     0.35800
C1205       C  0.77194421  0.18357732  0.85676003    -0.25900
C1206       C  0.74291094  0.19734385  0.84551790    -0.14000
C1207       C  0.71600841  0.20046758  0.86638957     0.36600
C1208       C  0.71810836  0.18821825  0.89788129    -0.25400
C1209       C  0.74615854  0.17193866  0.90829449    -0.14600
C1210       C  0.77368617  0.17045992  0.88790523     0.37700
N1211       N  0.80304242  0.15488359  0.89833874    -0.88900
H1212       H  0.79244657  0.18078116  0.84046794     0.18800
H1213       H  0.69694950  0.18934671  0.91351773     0.18800
N1214       N  0.68599668  0.21400800  0.85465964    -0.87900
H1215       H  0.82204156  0.17155011  0.89690042     0.36200
H1216       H  0.80817815  0.13624186  0.88220975     0.41300
H1217       H  0.66822772  0.21379210  0.87278886     0.40900
H1218       H  0.69041746  0.23811159  0.84903295     0.35800
C1219       C  0.73412009  0.28980096  0.64103524    -0.25900
C1220       C  0.76403584  0.27655552  0.65045540    -0.14000
C1221       C  0.78921369  0.27257383  0.62769775     0.36600
C1222       C  0.78467679  0.28413092  0.59614701    -0.25400
C1223       C  0.75593366  0.30039158  0.58766173    -0.14600
C1224       C  0.72980146  0.30193077  0.60973861     0.37700
N1225       N  0.69947768  0.31675388  0.60060075    -0.88900
H1226       H  0.71490751  0.29258890  0.65880046     0.18800
H1227       H  0.80451090  0.28261893  0.57891559     0.18800
N1228       N  0.81953956  0.25787168  0.63703897    -0.87900
H1229       H  0.68290558  0.31609201  0.61979249     0.36200
H1230       H  0.68936286  0.30294336  0.58208022     0.41300
H1231       H  0.83092412  0.27299402  0.65369195     0.40900
H1232       H  0.83523837  0.25625531  0.61720095     0.35800
C1233       C  0.72490148  0.36576934  0.25174173    -0.25900
C1234       C  0.70617907  0.33760084  0.25333736    -0.14000
C1235       C  0.67179834  0.34002192  0.25266966     0.36600
C1236       C  0.65717354  0.37052236  0.25198528    -0.25400
C1237       C  0.67581202  0.39891976  0.25213414    -0.14600
C1238       C  0.71023764  0.39637772  0.25137729     0.37700
N1239       N  0.73033357  0.42466136  0.25142885    -0.88900
H1240       H  0.75123434  0.36384365  0.25292552     0.18800
H1241       H  0.63079433  0.37190739  0.25218293     0.18800
N1242       N  0.65092169  0.31231159  0.25426536    -0.87900
H1243       H  0.75496270  0.41848513  0.24950749     0.36200
H1244       H  0.72758044  0.43565581  0.27396718     0.41300
H1245       H  0.66422630  0.29095170  0.25483595     0.40900
H1246       H  0.63723499  0.31179936  0.23295421     0.35800
C1247       C  0.82780898  0.14264968  0.23356723    -0.25900
C1248       C  0.79440252  0.14420650  0.24031639    -0.14000
C1249       C  0.77761728  0.11590482  0.24927369     0.36600
C1250       C  0.79444578  0.08655184  0.24991583    -0.25400
C1251       C  0.82764241  0.08451706  0.24161173    -0.14600
C1252       C  0.84462850  0.11317504  0.23376648     0.37700
N1253       N  0.87851771  0.11233704  0.22491736    -0.88900
H1254       H  0.84032887  0.16432753  0.22598344     0.18800
H1255       H  0.78109137  0.06499817  0.25629552     0.18800
N1256       N  0.74331309  0.11580891  0.25652477    -0.87900
H1257       H  0.88748091  0.13560959  0.22134819     0.36200
H1258       H  0.88018840  0.10081988  0.20256674     0.41300
H1259       H  0.73346200  0.13892181  0.25577314     0.40900
H1260       H  0.74065988  0.10787022  0.28038402     0.35800
C1261       C  0.73795674  0.28345792  0.39944226    -0.25900
C1262       C  0.75987307  0.30836082  0.40651504    -0.14000
C1263       C  0.78263728  0.31806299  0.38274194     0.36600
C1264       C  0.78123010  0.30462253  0.35196544    -0.25400
C1265       C  0.75690318  0.28248063  0.34388793    -0.14600
C1266       C  0.73589769  0.27059370  0.36824797     0.37700
N1267       N  0.71090592  0.24727112  0.36177667    -0.88900
H1268       H  0.72084857  0.27536184  0.41768030     0.18800
H1269       H  0.79736524  0.31373846  0.33332824     0.18800
N1270       N  0.80697494  0.34197491  0.38878714    -0.87900
H1271       H  0.71584192  0.22705331  0.37603852     0.36200
H1272       H  0.71163966  0.23947367  0.33786792     0.41300
H1273       H  0.82029268  0.33523287  0.40924286     0.40900
H1274       H  0.79555543  0.36402659  0.39300996     0.35800
C1275       C  0.76002471  0.19417850  0.09516623    -0.25900
C1276       C  0.73655887  0.17068121  0.08818221    -0.14000
C1277       C  0.71311737  0.16257046  0.11171178     0.36600
C1278       C  0.71526070  0.17587676  0.14266030    -0.25400
C1279       C  0.74058340  0.19702648  0.15047922    -0.14600
C1280       C  0.76238248  0.20714516  0.12633037     0.37700
N1281       N  0.78829900  0.22880793  0.13409920    -0.88900
H1282       H  0.77795084  0.20083816  0.07712535     0.18800
H1283       H  0.69862552  0.16779059  0.16133258     0.18800
N1284       N  0.68757345  0.14027402  0.10446662    -0.87900
H1285       H  0.81041953  0.21730712  0.12915220     0.36200
H1286       H  0.78637305  0.24878460  0.11884517     0.41300
H1287       H  0.66526255  0.15183737  0.10834888     0.40900
H1288       H  0.68924515  0.12104574  0.12069022     0.35800
C1289       C  0.60139857  0.56394452  0.00638093    -0.25900
C1290       C  0.60150493  0.53060727  0.00231182    -0.14000
C1291       C  0.63033637  0.51492907  0.99302748     0.36600
C1292       C  0.65920484  0.53269801  0.98943806    -0.25400
C1293       C  0.65978812  0.56593314  0.99571950    -0.14600
C1294       C  0.63014309  0.58189818  0.00302855     0.37700
N1295       N  0.62937255  0.61608875  0.00793478    -0.88900
H1296       H  0.57904579  0.57575336  0.01377853     0.18800
H1297       H  0.68151197  0.52012593  0.98333410     0.18800
N1298       N  0.63059088  0.48079942  0.98863245    -0.87900
H1299       H  0.60588065  0.62373561  0.01411599     0.36200
H1300       H  0.63491798  0.62699818  0.98584168     0.41300
H1301       H  0.63849319  0.47606945  0.96510087     0.40900
H1302       H  0.64761538  0.47092718  0.00463340     0.35800
C1303       C  0.84739528  0.53449416  0.00907043    -0.25900
C1304       C  0.84691299  0.56816830  0.00617596    -0.14000
C1305       C  0.87708550  0.58480994  0.00483187     0.36600
C1306       C  0.90633666  0.56747089  0.00354531    -0.25400
C1307       C  0.90639941  0.53381778  0.00329899    -0.14600
C1308       C  0.87665861  0.51712975  0.00736808     0.37700
N1309       N  0.87516151  0.48261900  0.00866454    -0.88900
H1310       H  0.82471365  0.52130894  0.01103155     0.18800
H1311       H  0.92906342  0.58036587  0.00034576     0.18800
N1312       N  0.87898143  0.61918306  0.00422790    -0.87900
H1313       H  0.86327222  0.47476830  0.98779168     0.36200
H1314       H  0.89838524  0.47231285  0.00865828     0.41300
H1315       H  0.86627007  0.62824312  0.02412591     0.40900
H1316       H  0.86836377  0.62769985  0.98292572     0.35800
C1317       C  0.79345929  0.89450003  0.24609589    -0.25900
C1318       C  0.82757547  0.89658370  0.24375518    -0.14000
C1319       C  0.84613087  0.86780501  0.24269576     0.36600
C1320       C  0.83036271  0.83797119  0.24605079    -0.25400
C1321       C  0.79660070  0.83619014  0.25042933    -0.14600
C1322       C  0.77784822  0.86464948  0.25003484     0.37700
N1323       N  0.74314171  0.86316660  0.25479607    -0.88900
H1324       H  0.77901644  0.91631591  0.24659229     0.18800
H1325       H  0.84463091  0.81604105  0.24693496     0.18800
N1326       N  0.88098588  0.86887762  0.23919608    -0.87900
H1327       H  0.73285361  0.88612343  0.25317773     0.36200
H1328       H  0.73886529  0.85520726  0.27838801     0.41300
H1329       H  0.88603608  0.87799956  0.21617331     0.40900
H1330       H  0.89093098  0.84573257  0.23999793     0.35800
C1331       C  0.71651395  0.62215801  0.25840520    -0.25900
C1332       C  0.69827205  0.64748844  0.24506677    -0.14000
C1333       C  0.66492600  0.64254063  0.23791318     0.36600
C1334       C  0.65138056  0.61194569  0.24216455    -0.25400
C1335       C  0.67002730  0.58595460  0.25368386    -0.14600
C1336       C  0.70264238  0.59157525  0.26306293     0.37700
N1337       N  0.72200079  0.56629548  0.27672044    -0.88900
H1338       H  0.74209588  0.62574592  0.26384399     0.18800
H1339       H  0.62612066  0.60838734  0.23541958     0.18800
N1340       N  0.64438080  0.66760752  0.22517723    -0.87900
H1341       H  0.72998021  0.57376731  0.29949062     0.36200
H1342       H  0.74251187  0.56304466  0.26209740     0.41300
H1343       H  0.65664269  0.68953763  0.22387781     0.40900
H1344       H  0.62530798  0.67104524  0.24157041     0.35800
C1345       C  0.77287324  0.67759980  0.14377920    -0.25900
C1346       C  0.74703259  0.69850621  0.15073577    -0.14000
C1347       C  0.72582691  0.70843011  0.12569925     0.36600
C1348       C  0.72957943  0.69518505  0.09479592    -0.25400
C1349       C  0.75353343  0.67181133  0.08867963    -0.14600
C1350       C  0.77640063  0.66410202  0.11299955     0.37700
N1351       N  0.80243391  0.64178881  0.10668739    -0.88900
H1352       H  0.78903298  0.67009971  0.16311427     0.18800
H1353       H  0.71237189  0.70175709  0.07603398     0.18800
N1354       N  0.69958874  0.73073569  0.13104790    -0.87900
H1355       H  0.81676717  0.63840741  0.12731890     0.36200
H1356       H  0.81756215  0.65213909  0.08921250     0.41300
H1357       H  0.69978029  0.73962681  0.15461185     0.40900
H1358       H  0.67769856  0.71826121  0.12809281     0.35800
C1359       C  0.67626912  0.83799787  0.74087817    -0.25900
C1360       C  0.71014823  0.83752386  0.74470613    -0.14000
C1361       C  0.72663184  0.86625396  0.75207482     0.36600
C1362       C  0.70899580  0.89527256  0.75414158    -0.25400
C1363       C  0.67517314  0.89626881  0.74844735    -0.14600
C1364       C  0.65855645  0.86696266  0.74237622     0.37700
N1365       N  0.62393840  0.86655992  0.73693723    -0.88900
H1366       H  0.66385909  0.81587654  0.73467056     0.18800
H1367       H  0.72196885  0.91736830  0.75913396     0.18800
N1368       N  0.76143894  0.86597418  0.75598982    -0.87900
H1369       H  0.61539204  0.84293242  0.73546242     0.36200
H1370       H  0.61972274  0.87684529  0.71425155     0.41300
H1371       H  0.76672142  0.85194537  0.77633160     0.40900
H1372       H  0.77002748  0.88910288  0.76086587     0.35800
C1373       C  0.78254062  0.61795286  0.75062202    -0.25900
C1374       C  0.80217169  0.64518783  0.75493316    -0.14000
C1375       C  0.83642058  0.64138091  0.75636455     0.36600
C1376       C  0.84987318  0.61033905  0.75522920    -0.25400
C1377       C  0.83011955  0.58279591  0.75276242    -0.14600
C1378       C  0.79600440  0.58682842  0.74964428     0.37700
N1379       N  0.77491578  0.55940447  0.74691163    -0.88900
H1380       H  0.75628231  0.62089198  0.75019894     0.18800
H1381       H  0.87610385  0.60777681  0.75706148     0.18800
N1382       N  0.85815318  0.66816187  0.76047866    -0.87900
H1383       H  0.75068037  0.56665627  0.74396628     0.36200
H1384       H  0.77593567  0.54691337  0.76884695     0.41300
H1385       H  0.84554284  0.68995453  0.76080132     0.40900
H1386       H  0.87337243  0.66899827  0.74022340     0.35800
C1387       C  0.77731945  0.70636585  0.86849781    -0.25900
C1388       C  0.75249996  0.69867764  0.84666601    -0.14000
C1389       C  0.72586448  0.67981693  0.85698662     0.36600
C1390       C  0.72617711  0.66686820  0.88818626    -0.25400
C1391       C  0.75247718  0.67214298  0.90922278    -0.14600
C1392       C  0.77823820  0.69273342  0.89943249     0.37700
N1393       N  0.80688750  0.69840014  0.91867983    -0.88900
H1394       H  0.79802392  0.72032174  0.86021770     0.18800
H1395       H  0.70625128  0.65142277  0.89561560     0.18800
N1396       N  0.69932223  0.67161662  0.83584597    -0.87900
H1397       H  0.82698199  0.68994934  0.90565853     0.36200
H1398       H  0.80683923  0.68530504  0.94012299     0.41300
H1399       H  0.70157212  0.68296863  0.81342983     0.40900
H1400       H  0.67794634  0.68066399  0.84615943     0.35800
C1401       C  0.87280405  0.89796138  0.49192887    -0.25900
C1402       C  0.84400258  0.91492450  0.49890768    -0.14000
C1403       C  0.84594671  0.94815341  0.50583689     0.36600
C1404       C  0.87622496  0.96388132  0.50321617    -0.25400
C1405       C  0.90449283  0.94711401  0.49417638    -0.14600
C1406       C  0.90294846  0.91349541  0.48964544     0.37700
N1407       N  0.93102517  0.89460055  0.48104069    -0.88900
H1408       H  0.87188035  0.87233363  0.48739064     0.18800
H1409       H  0.87746386  0.98972018  0.50625876     0.18800
N1410       N  0.81719052  0.96611419  0.51415293    -0.87900
H1411       H  0.93468383  0.87773892  0.49947247     0.36200
H1412       H  0.95216612  0.90847023  0.48015373     0.41300
H1413       H  0.80212929  0.96670015  0.49378189     0.40900
H1414       H  0.82311003  0.98999316  0.51931636     0.35800
C1415       C  0.63057397  0.88710323  0.50123825    -0.25900
C1416       C  0.65795324  0.90677206  0.49590846    -0.14000
C1417       C  0.65306565  0.94004699  0.49040846     0.36600
C1418       C  0.62130771  0.95283880  0.49211526    -0.25400
C1419       C  0.59448058  0.93341720  0.49987622    -0.14600
C1420       C  0.59906389  0.89994124  0.50355144     0.37700
N1421       N  0.57271047  0.87853844  0.51142551    -0.88900
H1422       H  0.63369919  0.86147949  0.50487487     0.18800
H1423       H  0.61775614  0.97858592  0.48999618     0.18800
N1424       N  0.68026419  0.96106458  0.48470898    -0.87900
H1425       H  0.57083717  0.86183429  0.49268929     0.36200
H1426       H  0.55042279  0.89065074  0.51212879     0.41300
H1427       H  0.69381934  0.96206559  0.50606546     0.40900
H1428       H  0.67222856  0.98451918  0.48017493     0.35800
C1429       C  0.74268298  0.78303522  0.59766203    -0.25900
C1430       C  0.76491236  0.80729629  0.58905537    -0.14000
C1431       C  0.78838538  0.81726729  0.61193442     0.36600
C1432       C  0.78641768  0.80613304  0.64379488    -0.25400
C1433       C  0.76189100  0.78471136  0.65305102    -0.14600
C1434       C  0.74102976  0.77171178  0.62958444     0.37700
N1435       N  0.71697331  0.74843708  0.63856414    -0.88900
H1436       H  0.72516029  0.77429545  0.58019564     0.18800
H1437       H  0.80281734  0.81580805  0.66184644     0.18800
N1438       N  0.81358859  0.83949403  0.60330951    -0.87900
H1439       H  0.69401678  0.75765762  0.63262196     0.36200
H1440       H  0.72088766  0.72781198  0.62470712     0.41300
H1441       H  0.83607053  0.82859323  0.60811223     0.40900
H1442       H  0.81146949  0.85968187  0.61815059     0.35800
C1443       C  0.77845154  0.78451905  0.40018052    -0.25900
C1444       C  0.75260247  0.80503813  0.40851620    -0.14000
C1445       C  0.72735391  0.81087467  0.38610155     0.36600
C1446       C  0.72988484  0.79836447  0.35484597    -0.25400
C1447       C  0.75720432  0.78048420  0.34557893    -0.14600
C1448       C  0.78136073  0.77265187  0.36851158     0.37700
N1449       N  0.80930435  0.75396692  0.35915471    -0.88900
H1450       H  0.79759844  0.77978212  0.41759682     0.18800
H1451       H  0.71161157  0.80444433  0.33691454     0.18800
N1452       N  0.69981478  0.83042875  0.39485148    -0.87900
H1453       H  0.82459024  0.75005552  0.37901481     0.36200
H1454       H  0.82272392  0.76750442  0.34254299     0.41300
H1455       H  0.68716255  0.81831884  0.41313935     0.40900
H1456       H  0.68370421  0.83275576  0.37543259     0.35800
loop_ 
_geom_bond_atom_site_label_1 
_geom_bond_atom_site_label_2 
_geom_bond_distance 
_geom_bond_site_symmetry_2 
_ccdc_geom_bond_type 
O1            C4   1.266       .  A
O1           Cd6   2.487       .  S
C2           O11   1.263       .  A
C2            O7   1.265       .  A
C2         C1444   1.473       .  S
O3            C9   1.266       .  A
O3           Cd6   2.501       .  S
C4           O12   1.262       .  A
C4         C1430   1.481       .  S
C5           O10   1.268       .  A
C5            O8   1.267       .  A
C5         C1402   1.486       .  S
Cd6          O13   2.456       .  S
Cd6          O12   2.435       .  S
Cd6          O11   2.425       .  S
Cd6           O7   2.484       .  S
Cd6          O10   2.483       .  S
Cd6           O8   2.441       .  S
C9           O13   1.265       .  A
C9         C1416   1.491       .  S
C14        C1433   1.474       .  S
C14          C15   1.397       .  A
C14          C19   1.410       .  A
C15          C16   1.394       .  A
C15          H34   1.086       .  S
C16        C1360   1.486       .  S
C16          C17   1.416       .  A
C17          C18   1.425       .  A
C17          C24   1.404       .  A
C18          C19   1.418       .  A
C18          C23   1.418       .  A
C19          C20   1.407       .  A
C20          C21   1.395       .  A
C20          H30   1.083       .  S
C21          C22   1.403       .  A
C21          H31   1.083       .  S
C22          C23   1.426       .  A
C22          C29   1.416       .  A
C23          C26   1.418       .  A
C24          C25   1.395       .  A
C24          H32   1.083       .  S
C25          C26   1.406       .  A
C25          H33   1.083       .  S
C26          C27   1.409       .  A
C27        C1388   1.472       .  S
C27          C28   1.394       .  A
C28          C29   1.392       .  A
C28          H35   1.086       .  S
C29        C1374   1.486       .  S
C36        C1447   1.474       .  S
C36          C37   1.394       .  A
C36          C41   1.411       .  A
C37          C38   1.393       .  A
C37          H56   1.086       .  S
C38        C1321   1.483       .  S
C38          C39   1.415       .  A
C39          C40   1.424       .  A
C39          C46   1.404       .  A
C40          C41   1.419       .  A
C40          C45   1.419       .  A
C41          C42   1.406       .  A
C42          C43   1.395       .  A
C42          H52   1.083       .  S
C43          C44   1.405       .  A
C43          H53   1.083       .  S
C44          C45   1.424       .  A
C44          C51   1.415       .  A
C45          C48   1.419       .  A
C46          C47   1.396       .  A
C46          H54   1.083       .  S
C47          C48   1.407       .  A
C47          H55   1.083       .  S
C48          C49   1.411       .  A
C49        C1346   1.477       .  S
C49          C50   1.396       .  A
C50          C51   1.395       .  A
C50          H57   1.086       .  S
C51        C1332   1.485       .  S
O58          C61   1.264       .  A
O58         Cd63   2.458       .  S
C59          O68   1.265       .  A
C59          O64   1.264       .  A
C59        C1349   1.477       .  S
O60          C66   1.266       .  A
O60         Cd63   2.494       .  S
C61          O69   1.265       .  A
C61        C1391   1.472       .  S
C62          O67   1.267       .  A
C62          O65   1.264   1_554  A
C62        C1304   1.488       .  S
Cd63         O70   2.446   1_556  S
Cd63         O69   2.448       .  S
Cd63         O68   2.477   1_556  S
Cd63         O64   2.432   1_556  S
Cd63         O67   2.485   1_556  S
Cd63         O65   2.463       .  S
C66          O70   1.264   1_556  A
C66        C1293   1.487       .  S
C71        C1248   1.480       .  S
C71          C72   1.390       .  A
C71          C76   1.412       .  A
C72          C73   1.394       .  A
C72          H91   1.086       .  S
C73        C1279   1.473       .  S
C73          C74   1.412       .  A
C74          C75   1.420       .  A
C74          C81   1.406       .  A
C75          C76   1.423       .  A
C75          C80   1.417       .  A
C76          C77   1.404       .  A
C77          C78   1.394       .  A
C77          H87   1.083       .  S
C78          C79   1.406       .  A
C78          H88   1.083       .  S
C79          C80   1.420       .  A
C79          C86   1.410       .  A
C80          C83   1.424       .  A
C81          C82   1.397       .  A
C81          H89   1.083       .  S
C82          C83   1.405       .  A
C82          H90   1.083       .  S
C83          C84   1.416       .  A
C84        C1234   1.485       .  S
C84          C85   1.393       .  A
C85          C86   1.394       .  A
C85          H92   1.086       .  S
C86        C1265   1.475       .  S
C93        C1220   1.471       .  S
C93          C94   1.395       .  A
C93          C98   1.408       .  A
C94          C95   1.393       .  A
C94         H113   1.086       .  S
C95        C1178   1.484       .  S
C95          C96   1.415       .  A
C96          C97   1.424       .  A
C96         C103   1.404       .  A
C97          C98   1.417       .  A
C97         C102   1.417       .  A
C98          C99   1.407       .  A
C99         C100   1.393       .  A
C99         H109   1.083       .  S
C100        C101   1.403       .  A
C100        H110   1.083       .  S
C101        C102   1.425       .  A
C101        C108   1.414       .  A
C102        C105   1.418       .  A
C103        C104   1.396       .  A
C103        H111   1.083       .  S
C104        C105   1.407       .  A
C104        H112   1.083       .  S
C105        C106   1.410       .  A
C106       C1206   1.471       .  S
C106        C107   1.394       .  A
C107        C108   1.392       .  A
C107        H114   1.086       .  S
C108       C1192   1.484       .  S
O115        C118   1.265       .  A
O115       Cd120   2.467       .  S
C116        O125   1.263       .  A
C116        O121   1.264       .  A
C116       C1223   1.468       .  S
O117        C123   1.267       .  A
O117       Cd120   2.493       .  S
C118        O126   1.264       .  A
C118       C1262   1.475       .  S
C119        O124   1.268       .  A
C119        O122   1.266       .  A
C119       C1150   1.490       .  S
Cd120       O127   2.467       .  S
Cd120       O126   2.434       .  S
Cd120       O125   2.437       .  S
Cd120       O121   2.459       .  S
Cd120       O124   2.477       .  S
Cd120       O122   2.469       .  S
C123        O127   1.263       .  A
C123       C1164   1.492       .  S
O128        C131   1.264       .  A
O128       Cd133   2.472   1_554  S
C129        O138   1.266       .  A
C129        O134   1.263       .  A
C129       C1209   1.471       .  S
O130        C136   1.268       .  A
O130       Cd133   2.462       .  S
C131        O139   1.264       .  A
C131       C1276   1.473       .  S
C132        O137   1.266   1_556  A
C132        O135   1.266       .  A
C132       C1125   1.493       .  S
Cd133       O140   2.444   1_556  S
Cd133       O139   2.438   1_556  S
Cd133       O138   2.451       .  S
Cd133       O134   2.444       .  S
Cd133       O137   2.485   1_556  S
Cd133       O135   2.475       .  S
C136        O140   1.265   1_556  A
C136       C1136   1.484       .  S
O141        C144   1.264       .  A
O141       Cd146   2.454       .  S
C142        O151   1.265       .  A
C142        O147   1.265       .  A
C142       C1097   1.475       .  S
O143        C149   1.267       .  A
O143       Cd146   2.490       .  S
C144        O152   1.264       .  A
C144       C1108   1.468       .  S
C145        O150   1.267       .  A
C145        O148   1.265       .  A
C145       C1181   1.492       .  S
Cd146       O153   2.473       .  S
Cd146       O152   2.426       .  S
Cd146       O151   2.437       .  S
Cd146       O147   2.467       .  S
Cd146       O150   2.495       .  S
Cd146       O148   2.467       .  S
C149        O153   1.265       .  A
C149       C1377   1.492       .  S
O154        C157   1.267       .  A
O154       Cd159   2.474       .  S
C155        O164   1.263       .  A
C155        O160   1.267       .  A
C155       C1080   1.472       .  S
O156        C162   1.267       .  A
O156       Cd159   2.486       .  S
C157        O165   1.263       .  A
C157       C1069   1.475       .  S
C158        O163   1.267       .  A
C158        O161   1.266       .  A
C158       C1052   1.492       .  S
Cd159       O166   2.456       .  S
Cd159       O165   2.425       .  S
Cd159       O164   2.411       .  S
Cd159       O160   2.491       .  S
Cd159       O163   2.482       .  S
Cd159       O161   2.454       .  S
C162        O166   1.265       .  A
C162       C1041   1.490       .  S
C167       C1307   1.482   1_556  S
C167        C168   1.393       .  A
C167        C172   1.413   1_556  A
C168        C169   1.394       .  A
C168        H187   1.086       .  S
C169       C1094   1.476       .  S
C169        C170   1.411       .  A
C170        C171   1.420       .  A
C170        C177   1.406   1_655  A
C171        C172   1.423   1_556  A
C171        C176   1.418   1_656  A
C172        C173   1.404       .  A
C173        C174   1.394       .  A
C173        H183   1.083       .  S
C174        C175   1.406   1_655  A
C174        H184   1.083       .  S
C175        C176   1.419       .  A
C175        C182   1.410       .  A
C176        C179   1.423   1_554  A
C177        C178   1.395       .  A
C177        H185   1.083       .  S
C178        C179   1.405       .  A
C178        H186   1.083       .  S
C179        C180   1.415   1_556  A
C180       C1024   1.483       .  S
C180        C181   1.394       .  A
C181        C182   1.394       .  A
C181        H188   1.086       .  S
C182       C1066   1.475       .  S
C189       C1111   1.471       .  S
C189        C190   1.395       .  A
C189        C194   1.409       .  A
C190        C191   1.392       .  A
C190        H209   1.086       .  S
C191       C1167   1.485       .  S
C191        C192   1.415       .  A
C192        C193   1.425       .  A
C192        C199   1.403       .  A
C193        C194   1.417       .  A
C193        C198   1.417   1_655  A
C194        C195   1.407   1_655  A
C195        C196   1.394       .  A
C195        H205   1.083       .  S
C196        C197   1.403       .  A
C196        H206   1.083       .  S
C197        C198   1.425       .  A
C197        C204   1.415       .  A
C198        C201   1.417       .  A
C199        C200   1.395       .  A
C199        H207   1.083       .  S
C200        C201   1.407   1_655  A
C200        H208   1.083       .  S
C201        C202   1.409       .  A
C202       C1083   1.472       .  S
C202        C203   1.395       .  A
C203        C204   1.393       .  A
C203        H210   1.086       .  S
C204       C1010   1.484       .  S
C211        C996   1.479       .  S
C211        C212   1.395       .  A
C211        C216   1.413       .  A
C212        C213   1.393       .  A
C212        H231   1.086       .  S
C213       C1290   1.476       .  S
C213        C214   1.411   1_554  A
C214        C215   1.421   1_556  A
C214        C221   1.405       .  A
C215        C216   1.422       .  A
C215        C220   1.417   1_554  A
C216        C217   1.405       .  A
C217        C218   1.396       .  A
C217        H227   1.083       .  S
C218        C219   1.405       .  A
C218        H228   1.083       .  S
C219        C220   1.421   1_554  A
C219        C226   1.413   1_554  A
C220        C223   1.421       .  A
C221        C222   1.394       .  A
C221        H229   1.083       .  S
C222        C223   1.404       .  A
C222        H230   1.083       .  S
C223        C224   1.411       .  A
C224        C982   1.478       .  S
C224        C225   1.394       .  A
C225        C226   1.392       .  A
C225        H232   1.086       .  S
C226        C968   1.478       .  S
O233        C236   1.265       .  A
O233       Cd238   2.484       .  S
C234        O243   1.264       .  A
C234        O239   1.264       .  A
C234        C954   1.475       .  S
O235        C241   1.267       .  A
O235       Cd238   2.493       .  S
C236        O244   1.263       .  A
C236        C985   1.479       .  S
C237        O242   1.267       .  A
C237        O240   1.265       .  A
C237        C940   1.488       .  S
Cd238       O245   2.453       .  S
Cd238       O244   2.432       .  S
Cd238       O243   2.446       .  S
Cd238       O239   2.469       .  S
Cd238       O242   2.495       .  S
Cd238       O240   2.449       .  S
C241        O245   1.264       .  A
C241        C926   1.490       .  S
C246        C912   1.475       .  S
C246        C247   1.394       .  A
C246        C251   1.409       .  A
C247        C248   1.393       .  A
C247        H266   1.086       .  S
C248       C1153   1.483       .  S
C248        C249   1.416       .  A
C249        C250   1.424       .  A
C249        C256   1.405       .  A
C250        C251   1.420       .  A
C250        C255   1.419       .  A
C251        C252   1.405       .  A
C252        C253   1.393       .  A
C252        H262   1.083       .  S
C253        C254   1.404       .  A
C253        H263   1.083       .  S
C254        C255   1.424       .  A
C254        C261   1.414       .  A
C255        C258   1.420       .  A
C256        C257   1.398       .  A
C256        H264   1.083       .  S
C257        C258   1.407       .  A
C257        H265   1.083       .  S
C258        C259   1.413       .  A
C259        C957   1.475       .  S
C259        C260   1.394       .  A
C260        C261   1.392       .  A
C260        H267   1.086       .  S
C261        C898   1.484       .  S
O268        C271   1.265       .  A
O268       Cd273   2.482       .  S
C269        O278   1.264       .  A
C269        O274   1.265       .  A
C269        C915   1.475       .  S
O270        C276   1.267       .  A
O270       Cd273   2.489       .  S
C271        O279   1.265       .  A
C271        C999   1.476       .  S
C272        O277   1.267       .  A
C272        O275   1.265       .  A
C272       C1335   1.489       .  S
Cd273       O280   2.468       .  S
Cd273       O279   2.443       .  S
Cd273       O278   2.434       .  S
Cd273       O274   2.483       .  S
Cd273       O277   2.497       .  S
Cd273       O275   2.446       .  S
C276        O280   1.266       .  A
C276       C1237   1.493       .  S
C281        C929   1.482       .  S
C281        C282   1.392       .  A
C281        C286   1.414       .  A
C282        C283   1.395       .  A
C282        H301   1.086       .  S
C283        C870   1.472       .  S
C283        C284   1.409       .  A
C284        C285   1.418       .  A
C284        C291   1.407       .  A
C285        C286   1.424       .  A
C285        C290   1.417       .  A
C286        C287   1.404       .  A
C287        C288   1.394       .  A
C287        H297   1.083       .  S
C288        C289   1.406       .  A
C288        H298   1.083       .  S
C289        C290   1.418       .  A
C289        C296   1.409       .  A
C290        C293   1.424       .  A
C291        C292   1.395       .  A
C291        H299   1.083       .  S
C292        C293   1.404       .  A
C292        H300   1.083       .  S
C293        C294   1.414       .  A
C294        C856   1.481       .  S
C294        C295   1.391       .  A
C295        C296   1.392       .  A
C295        H302   1.086       .  S
C296        C884   1.470       .  S
O303        C306   1.264       .  A
O303       Cd308   2.474       .  S
C304        O313   1.265       .  A
C304        O309   1.264       .  A
C304        C845   1.464       .  S
O305        C311   1.269       .  A
O305       Cd308   2.478       .  S
C306        O314   1.262       .  A
C306        C887   1.473       .  S
C307        O312   1.267       .  A
C307        O310   1.262       .  A
C307        C814   1.494       .  S
Cd308       O315   2.461       .  S
Cd308       O314   2.418       .  S
Cd308       O313   2.411       .  S
Cd308       O309   2.459       .  S
Cd308       O312   2.500       .  S
Cd308       O310   2.471       .  S
C311        O315   1.265       .  A
C311        C828   1.492       .  S
C316       C1038   1.481       .  S
C316        C317   1.392       .  A
C316        C321   1.412       .  A
C317        C318   1.396       .  A
C317        H336   1.086       .  S
C318        C800   1.474       .  S
C318        C319   1.410       .  A
C319        C320   1.418       .  A
C319        C326   1.407       .  A
C320        C321   1.423       .  A
C320        C325   1.416       .  A
C321        C322   1.404       .  A
C322        C323   1.393       .  A
C322        H332   1.083       .  S
C323        C324   1.406       .  A
C323        H333   1.083       .  S
C324        C325   1.417       .  A
C324        C331   1.407       .  A
C325        C328   1.423       .  A
C326        C327   1.393       .  A
C326        H334   1.082       .  S
C327        C328   1.403       .  A
C327        H335   1.083       .  S
C328        C329   1.413       .  A
C329        C789   1.480       .  S
C329        C330   1.391       .  A
C330        C331   1.395       .  A
C330        H337   1.086       .  S
C331        C842   1.468       .  S
O338        C341   1.262       .  A
O338       Cd343   2.467       .  S
C339        O348   1.264       .  A
C339        O344   1.263       .  A
C339        C873   1.464       .  S
O340        C346   1.269   1_554  A
O340       Cd343   2.484       .  S
C341        O349   1.263       .  A
C341        C803   1.472       .  S
C342        O347   1.266       .  A
C342        O345   1.265   1_554  A
C342        C971   1.485       .  S
Cd343       O350   2.456   1_554  S
Cd343       O349   2.444       .  S
Cd343       O348   2.423   1_554  S
Cd343       O344   2.463   1_554  S
Cd343       O347   2.481       .  S
Cd343       O345   2.458   1_554  S
C346        O350   1.265       .  A
C346       C1027   1.491       .  S
O351        C354   1.264       .  A
O351       Cd356   2.467       .  S
C352        O361   1.263       .  A
C352        O357   1.264       .  A
C352        C772   1.472       .  S
O353        C359   1.268       .  A
O353       Cd356   2.505   1_545  S
C354        O362   1.266       .  A
C354        C758   1.478       .  S
C355        O360   1.269       .  A
C355        O358   1.263       .  A
C355       C1363   1.495       .  S
Cd356       O363   2.467   1_565  S
Cd356       O362   2.446       .  S
Cd356       O361   2.457       .  S
Cd356       O357   2.420       .  S
Cd356       O360   2.507       .  S
Cd356       O358   2.452       .  S
C359        O363   1.263       .  A
C359       C1195   1.496       .  S
O364        C367   1.265       .  A
O364       Cd369   2.484       .  S
C365        O374   1.265   1_565  A
C365        O370   1.265       .  A
C365        C733   1.483       .  S
O366        C372   1.268       .  A
O366       Cd369   2.495       .  S
C367        O375   1.264       .  A
C367        C744   1.479       .  S
C368        O373   1.268       .  A
C368        O371   1.263       .  A
C368        C786   1.493       .  S
Cd369       O376   2.469       .  S
Cd369       O375   2.432       .  S
Cd369       O374   2.438   1_565  S
Cd369       O370   2.471       .  S
Cd369       O373   2.490   1_565  S
Cd369       O371   2.454   1_565  S
C372        O376   1.264       .  A
C372        C716   1.493       .  S
C377        C761   1.478       .  S
C377        C378   1.395   1_565  A
C377        C382   1.412       .  A
C378        C379   1.392       .  A
C378        H397   1.086       .  S
C379       C1122   1.484       .  S
C379        C380   1.415       .  A
C380        C381   1.424   1_545  A
C380        C387   1.404   1_556  A
C381        C382   1.421       .  A
C381        C386   1.420   1_556  A
C382        C383   1.406       .  A
C383        C384   1.396       .  A
C383        H393   1.083       .  S
C384        C385   1.405       .  A
C384        H394   1.083       .  S
C385        C386   1.424   1_556  A
C385        C392   1.415   1_556  A
C386        C389   1.421       .  A
C387        C388   1.396       .  A
C387        H395   1.083       .  S
C388        C389   1.407   1_545  A
C388        H396   1.082       .  S
C389        C390   1.414       .  A
C390        C730   1.480       .  S
C390        C391   1.396       .  A
C391        C392   1.394       .  A
C391        H398   1.086       .  S
C392        C705   1.484   1_554  S
C399        C775   1.469       .  S
C399        C400   1.393       .  A
C399        C404   1.408       .  A
C400        C401   1.392       .  A
C400        H419   1.086       .  S
C401       C1419   1.482       .  S
C401        C402   1.415       .  A
C402        C403   1.424       .  A
C402        C409   1.403       .  A
C403        C404   1.417       .  A
C403        C408   1.417       .  A
C404        C405   1.406   1_565  A
C405        C406   1.393       .  A
C405        H415   1.083       .  S
C406        C407   1.403       .  A
C406        H416   1.083       .  S
C407        C408   1.424   1_545  A
C407        C414   1.413       .  A
C408        C411   1.418       .  A
C409        C410   1.396       .  A
C409        H417   1.083       .  S
C410        C411   1.407       .  A
C410        H418   1.083       .  S
C411        C412   1.411       .  A
C412        C747   1.475       .  S
C412        C413   1.396   1_565  A
C413        C414   1.393       .  A
C413        H420   1.086       .  S
C414        C831   1.482       .  S
C421       C1055   1.484       .  S
C421        C422   1.392       .  A
C421        C426   1.413       .  A
C422        C423   1.395       .  A
C422        H441   1.086       .  S
C423        C674   1.475       .  S
C423        C424   1.412       .  A
C424        C425   1.419       .  A
C424        C431   1.407       .  A
C425        C426   1.425       .  A
C425        C430   1.419       .  A
C426        C427   1.403       .  A
C427        C428   1.393       .  A
C427        H437   1.083       .  S
C428        C429   1.406       .  A
C428        H438   1.083       .  S
C429        C430   1.418       .  A
C429        C436   1.409       .  A
C430        C433   1.425       .  A
C431        C432   1.398       .  A
C431        H439   1.083       .  S
C432        C433   1.404       .  A
C432        H440   1.083       .  S
C433        C434   1.417       .  A
C434        C719   1.486       .  S
C434        C435   1.393       .  A
C435        C436   1.394       .  A
C435        H442   1.086       .  S
C436        C688   1.473       .  S
O443        C446   1.264       .  A
O443       Cd448   2.471       .  S
C444        O453   1.264       .  A
C444        O449   1.263       .  A
C444        C677   1.480       .  S
O445        C451   1.268       .  A
O445       Cd448   2.497       .  S
C446        O454   1.261       .  A
C446        C660   1.472       .  S
C447        O452   1.268       .  A
C447        O450   1.265       .  A
C447       C1013   1.487       .  S
Cd448       O455   2.469       .  S
Cd448       O454   2.425       .  S
Cd448       O453   2.441       .  S
Cd448       O449   2.484       .  S
Cd448       O452   2.500       .  S
Cd448       O450   2.451       .  S
C451        O455   1.264       .  A
C451        C901   1.488       .  S
C456        C943   1.483       .  S
C456        C457   1.393       .  A
C456        C461   1.415       .  A
C457        C458   1.395       .  A
C457        H476   1.086       .  S
C458        C663   1.470       .  S
C458        C459   1.409       .  A
C459        C460   1.417       .  A
C459        C466   1.407       .  A
C460        C461   1.425       .  A
C460        C465   1.418       .  A
C461        C462   1.403       .  A
C462        C463   1.395       .  A
C462        H472   1.083       .  S
C463        C464   1.407       .  A
C463        H473   1.083       .  S
C464        C465   1.417       .  A
C464        C471   1.409       .  A
C465        C468   1.425       .  A
C466        C467   1.394       .  A
C466        H474   1.083       .  S
C467        C468   1.403       .  A
C467        H475   1.083       .  S
C468        C469   1.415       .  A
C469        C635   1.486       .  S
C469        C470   1.393       .  A
C470        C471   1.396       .  A
C470        H477   1.086       .  S
C471        C646   1.471       .  S
O478        C481   1.263       .  A
O478       Cd483   2.456   1_554  S
C479        O488   1.265       .  A
C479        O484   1.263       .  A
C479        C649   1.469       .  S
O480        C486   1.266   1_554  A
O480       Cd483   2.487   1_554  S
C481        O489   1.264       .  A
C481        C691   1.474       .  S
C482        O487   1.266       .  A
C482        O485   1.266   1_556  A
C482        C702   1.494       .  S
Cd483       O490   2.457       .  S
Cd483       O489   2.435   1_556  S
Cd483       O488   2.439       .  S
Cd483       O484   2.469       .  S
Cd483       O487   2.478       .  S
Cd483       O485   2.484   1_556  S
C486        O490   1.264       .  A
C486        C618   1.488       .  S
O491        C494   1.264       .  A
O491       Cd496   2.462       .  S
C492        O501   1.263   1_565  A
C492        O497   1.263       .  A
C492        C590   1.474       .  S
O493        C499   1.266       .  A
O493       Cd496   2.500       .  S
C494        O502   1.266       .  A
C494        C607   1.476       .  S
C495        O500   1.266       .  A
C495        O498   1.266       .  A
C495        C859   1.492       .  S
Cd496       O503   2.483       .  S
Cd496       O502   2.430       .  S
Cd496       O501   2.442   1_565  S
Cd496       O497   2.471       .  S
Cd496       O500   2.486   1_565  S
Cd496       O498   2.472   1_565  S
C499        O503   1.264       .  A
C499        C632   1.496       .  S
O504        C507   1.266       .  A
O504       Cd509   2.479       .  S
C505        O514   1.265   1_565  A
C505        O510   1.266       .  A
C505        C576   1.482       .  S
O506        C512   1.268       .  A
O506       Cd509   2.483   1_545  S
C507        O515   1.263       .  A
C507        C562   1.475       .  S
C508        O513   1.269       .  A
C508        O511   1.264       .  A
C508       C1318   1.490       .  S
Cd509       O516   2.458   1_565  S
Cd509       O515   2.420       .  S
Cd509       O514   2.435   1_565  S
Cd509       O510   2.487       .  S
Cd509       O513   2.493       .  S
Cd509       O511   2.441       .  S
C512        O516   1.264       .  A
C512       C1251   1.491       .  S
C517        C565   1.470       .  S
C517        C518   1.391   1_565  A
C517        C522   1.408       .  A
C518        C519   1.391       .  A
C518        H537   1.086       .  S
C519       C1139   1.475   1_554  S
C519        C520   1.412   1_554  A
C520        C521   1.422   1_545  A
C520        C527   1.404       .  A
C521        C522   1.418   1_556  A
C521        C526   1.415   1_655  A
C522        C523   1.405   1_655  A
C523        C524   1.392       .  A
C523        H533   1.083       .  S
C524        C525   1.404   1_554  A
C524        H534   1.083       .  S
C525        C526   1.422       .  A
C525        C532   1.411       .  A
C526        C529   1.418       .  A
C527        C528   1.395       .  A
C527        H535   1.083       .  S
C528        C529   1.407   1_645  A
C528        H536   1.083       .  S
C529        C530   1.409       .  A
C530        C593   1.472       .  S
C530        C531   1.396       .  A
C531        C532   1.393       .  A
C531        H538   1.086       .  S
C532        C621   1.479       .  S
C539        C579   1.479       .  S
C539        C540   1.395       .  A
C539        C544   1.414       .  A
C540        C541   1.391       .  A
C540        H559   1.086       .  S
C541       C1405   1.482       .  S
C541        C542   1.413       .  A
C542        C543   1.424       .  A
C542        C549   1.404       .  A
C543        C544   1.420       .  A
C543        C548   1.419   1_655  A
C544        C545   1.407   1_665  A
C545        C546   1.398       .  A
C545        H555   1.083       .  S
C546        C547   1.405       .  A
C546        H556   1.083       .  S
C547        C548   1.425   1_545  A
C547        C554   1.417       .  A
C548        C551   1.420       .  A
C549        C550   1.394       .  A
C549        H557   1.083       .  S
C550        C551   1.406   1_655  A
C550        H558   1.083       .  S
C551        C552   1.410       .  A
C552        C604   1.475       .  S
C552        C553   1.393   1_565  A
C553        C554   1.392       .  A
C553        H560   1.086       .  S
C554        C817   1.485       .  S
C561        C562   1.405       .  A
C561        C566   1.397       .  A
C561        H568   1.084       .  S
C562        C563   1.414   1_565  A
C563        C564   1.404       .  A
C563        N570   1.437       .  S
C564        C565   1.400   1_545  A
C564        H569   1.084       .  S
C565        C566   1.403       .  A
C566        N567   1.433       .  S
N567        H571   1.046       .  S
N567        H572   1.046       .  S
N570        H573   1.046       .  S
N570        H574   1.046       .  S
C575        C576   1.404   1_545  A
C575        C580   1.398       .  A
C575        H582   1.084       .  S
C576        C577   1.417       .  A
C577        C578   1.402       .  A
C577        N584   1.432       .  S
C578        C579   1.403       .  A
C578        H583   1.084       .  S
C579        C580   1.414   1_565  A
C580        N581   1.439       .  S
N581        H585   1.046       .  S
N581        H586   1.044       .  S
N584        H587   1.044       .  S
N584        H588   1.046       .  S
C589        C590   1.404   1_545  A
C589        C594   1.394       .  A
C589        H596   1.084       .  S
C590        C591   1.413       .  A
C591        C592   1.406       .  A
C591        N598   1.438       .  S
C592        C593   1.401       .  A
C592        H597   1.084       .  S
C593        C594   1.407   1_565  A
C594        N595   1.433       .  S
N595        H599   1.045       .  S
N595        H600   1.045       .  S
N598        H601   1.046       .  S
N598        H602   1.046       .  S
C603        C604   1.401   1_545  A
C603        C608   1.400       .  A
C603        H610   1.084       .  S
C604        C605   1.405       .  A
C605        C606   1.396       .  A
C605        N612   1.433       .  S
C606        C607   1.403       .  A
C606        H611   1.084       .  S
C607        C608   1.418   1_565  A
C608        N609   1.432       .  S
N609        H613   1.046       .  S
N609        H614   1.045       .  S
N612        H615   1.045       .  S
N612        H616   1.046       .  S
C617        C618   1.408   1_554  A
C617        C622   1.401   1_554  A
C617        H624   1.083       .  S
C618        C619   1.416       .  A
C619        C620   1.402       .  A
C619        N626   1.432       .  S
C620        C621   1.398       .  A
C620        H625   1.084       .  S
C621        C622   1.409       .  A
C622        N623   1.432   1_556  S
N623        H627   1.045   1_564  S
N623        H628   1.046       .  S
N626        H629   1.046       .  S
N626        H630   1.046   1_556  S
C631        C632   1.410       .  A
C631        C636   1.402       .  A
C631        H638   1.083       .  S
C632        C633   1.418       .  A
C633        C634   1.410       .  A
C633        N640   1.437       .  S
C634        C635   1.402       .  A
C634        H639   1.084       .  S
C635        C636   1.409       .  A
C636        N637   1.432       .  S
N637        H641   1.046       .  S
N637        H642   1.045       .  S
N640        H643   1.047       .  S
N640        H644   1.044       .  S
C645        C646   1.401       .  A
C645        C650   1.405       .  A
C645        H652   1.084       .  S
C646        C647   1.404       .  A
C647        C648   1.397       .  A
C647        N654   1.432       .  S
C648        C649   1.402       .  A
C648        H653   1.084       .  S
C649        C650   1.412       .  A
C650        N651   1.438       .  S
N651        H655   1.045       .  S
N651        H656   1.046       .  S
N654        H657   1.046       .  S
N654        H658   1.046       .  S
C659        C660   1.404       .  A
C659        C664   1.400       .  A
C659        H666   1.084       .  S
C660        C661   1.412       .  A
C661        C662   1.397       .  A
C661        N668   1.433       .  S
C662        C663   1.397       .  A
C662        H667   1.084       .  S
C663        C664   1.406       .  A
C664        N665   1.432       .  S
N665        H669   1.046       .  S
N665        H670   1.045       .  S
N668        H671   1.046       .  S
N668        H672   1.046       .  S
C673        C674   1.402       .  A
C673        C678   1.401       .  A
C673        H680   1.084       .  S
C674        C675   1.407       .  A
C675        C676   1.401       .  A
C675        N682   1.438       .  S
C676        C677   1.404       .  A
C676        H681   1.084       .  S
C677        C678   1.418       .  A
C678        N679   1.432       .  S
N679        H683   1.046       .  S
N679        H684   1.044       .  S
N682        H685   1.045       .  S
N682        H686   1.046       .  S
C687        C688   1.400       .  A
C687        C692   1.403       .  A
C687        H694   1.084       .  S
C688        C689   1.413       .  A
C689        C690   1.396       .  A
C689        N696   1.439       .  S
C690        C691   1.403       .  A
C690        H695   1.084       .  S
C691        C692   1.413       .  A
C692        N693   1.438       .  S
N693        H697   1.046       .  S
N693        H698   1.045       .  S
N696        H699   1.044       .  S
N696        H700   1.046       .  S
C701        C702   1.409       .  A
C701        C706   1.408   1_556  A
C701        H708   1.083   1_556  S
C702        C703   1.418       .  A
C703        C704   1.408       .  A
C703        N710   1.437       .  S
C704        C705   1.400       .  A
C704        H709   1.084       .  S
C705        C706   1.408   1_556  A
C706        N707   1.438       .  S
N707        H711   1.046       .  S
N707        H712   1.045       .  S
N710        H713   1.046       .  S
N710        H714   1.046       .  S
C715        C716   1.406       .  A
C715        C720   1.404       .  A
C715        H722   1.083       .  S
C716        C717   1.416       .  A
C717        C718   1.407       .  A
C717        N724   1.432       .  S
C718        C719   1.402       .  A
C718        H723   1.084       .  S
C719        C720   1.416       .  A
C720        N721   1.439       .  S
N721        H725   1.046       .  S
N721        H726   1.043       .  S
N724        H727   1.046       .  S
N724        H728   1.045       .  S
C729        C730   1.401       .  A
C729        C734   1.402       .  A
C729        H736   1.084       .  S
C730        C731   1.405   1_565  A
C731        C732   1.399       .  A
C731        N738   1.433       .  S
C732        C733   1.405   1_545  A
C732        H737   1.084       .  S
C733        C734   1.419       .  A
C734        N735   1.432       .  S
N735        H739   1.045       .  S
N735        H740   1.045       .  S
N738        H741   1.045       .  S
N738        H742   1.046       .  S
C743        C744   1.404       .  A
C743        C748   1.395       .  A
C743        H750   1.084       .  S
C744        C745   1.417   1_565  A
C745        C746   1.401       .  A
C745        N752   1.432       .  S
C746        C747   1.402   1_545  A
C746        H751   1.084       .  S
C747        C748   1.412       .  A
C748        N749   1.439       .  S
N749        H753   1.046       .  S
N749        H754   1.044       .  S
N752        H755   1.045       .  S
N752        H756   1.045       .  S
C757        C758   1.403       .  A
C757        C762   1.397       .  A
C757        H764   1.084       .  S
C758        C759   1.414   1_565  A
C759        C760   1.407       .  A
C759        N766   1.438       .  S
C760        C761   1.402   1_545  A
C760        H765   1.084       .  S
C761        C762   1.413       .  A
C762        N763   1.438       .  S
N763        H767   1.046       .  S
N763        H768   1.044       .  S
N766        H769   1.046       .  S
N766        H770   1.046       .  S
C771        C772   1.403   1_545  A
C771        C776   1.394       .  A
C771        H778   1.084       .  S
C772        C773   1.416       .  A
C773        C774   1.397       .  A
C773        N780   1.432       .  S
C774        C775   1.400       .  A
C774        H779   1.084       .  S
C775        C776   1.412   1_565  A
C776        N777   1.439       .  S
N777        H781   1.046       .  S
N777        H782   1.043       .  S
N780        H783   1.045       .  S
N780        H784   1.045       .  S
C785        C786   1.409       .  A
C785        C790   1.408       .  A
C785        H792   1.083       .  S
C786        C787   1.423       .  A
C787        C788   1.399       .  A
C787        N794   1.432       .  S
C788        C789   1.398       .  A
C788        H793   1.084       .  S
C789        C790   1.407       .  A
C790        N791   1.437       .  S
N791        H795   1.045       .  S
N791        H796   1.046       .  S
N794        H797   1.045       .  S
N794        H798   1.045       .  S
C799        C800   1.401       .  A
C799        C804   1.400       .  A
C799        H806   1.084       .  S
C800        C801   1.408       .  A
C801        C802   1.404       .  A
C801        N808   1.438       .  S
C802        C803   1.404       .  A
C802        H807   1.084       .  S
C803        C804   1.410       .  A
C804        N805   1.438       .  S
N805        H809   1.046       .  S
N805        H810   1.046       .  S
N808        H811   1.045       .  S
N808        H812   1.046       .  S
C813        C814   1.406       .  A
C813        C818   1.403       .  A
C813        H820   1.084       .  S
C814        C815   1.420       .  A
C815        C816   1.409       .  A
C815        N822   1.438       .  S
C816        C817   1.401       .  A
C816        H821   1.084       .  S
C817        C818   1.416       .  A
C818        N819   1.439   1_545  S
N819        H823   1.045       .  S
N819        H824   1.044       .  S
N822        H825   1.045       .  S
N822        H826   1.046       .  S
C827        C828   1.408       .  A
C827        C832   1.407       .  A
C827        H834   1.083       .  S
C828        C829   1.420       .  A
C829        C830   1.408       .  A
C829        N836   1.438       .  S
C830        C831   1.400       .  A
C830        H835   1.084       .  S
C831        C832   1.407       .  A
C832        N833   1.437   1_545  S
N833        H837   1.045       .  S
N833        H838   1.046       .  S
N836        H839   1.045       .  S
N836        H840   1.046       .  S
C841        C842   1.401       .  A
C841        C846   1.401       .  A
C841        H848   1.084       .  S
C842        C843   1.410       .  A
C843        C844   1.392       .  A
C843        N850   1.439       .  S
C844        C845   1.401       .  A
C844        H849   1.085       .  S
C845        C846   1.418       .  A
C846        N847   1.439       .  S
N847        H851   1.046       .  S
N847        H852   1.041       .  S
N850        H853   1.044       .  S
N850        H854   1.046       .  S
C855        C856   1.401       .  A
C855        C860   1.402       .  A
C855        H862   1.084       .  S
C856        C857   1.408       .  A
C857        C858   1.407       .  A
C857        N864   1.439       .  S
C858        C859   1.408       .  A
C858        H863   1.083       .  S
C859        C860   1.419       .  A
C860        N861   1.432       .  S
N861        H865   1.046       .  S
N861        H866   1.044       .  S
N864        H867   1.046       .  S
N864        H868   1.045       .  S
C869        C870   1.400       .  A
C869        C874   1.392       .  A
C869        H876   1.084       .  S
C870        C871   1.416       .  A
C871        C872   1.401       .  A
C871        N878   1.438       .  S
C872        C873   1.401       .  A
C872        H877   1.084       .  S
C873        C874   1.411       .  A
C874        N875   1.433       .  S
N875        H879   1.044       .  S
N875        H880   1.045       .  S
N878        H881   1.043       .  S
N878        H882   1.046       .  S
C883        C884   1.398       .  A
C883        C888   1.397       .  A
C883        H890   1.084       .  S
C884        C885   1.404       .  A
C885        C886   1.402       .  A
C885        N892   1.432       .  S
C886        C887   1.405       .  A
C886        H891   1.084       .  S
C887        C888   1.411       .  A
C888        N889   1.433       .  S
N889        H893   1.046       .  S
N889        H894   1.045       .  S
N892        H895   1.046       .  S
N892        H896   1.045       .  S
C897        C898   1.401       .  A
C897        C902   1.405       .  A
C897        H904   1.084       .  S
C898        C899   1.417       .  A
C899        C900   1.404       .  A
C899        N906   1.439       .  S
C900        C901   1.404       .  A
C900        H905   1.084       .  S
C901        C902   1.413       .  A
C902        N903   1.432       .  S
N903        H907   1.046       .  S
N903        H908   1.046       .  S
N906        H909   1.044       .  S
N906        H910   1.045       .  S
C911        C912   1.401       .  A
C911        C916   1.406       .  A
C911        H918   1.084       .  S
C912        C913   1.405       .  A
C913        C914   1.400       .  A
C913        N920   1.438       .  S
C914        C915   1.404       .  A
C914        H919   1.084       .  S
C915        C916   1.413       .  A
C916        N917   1.438       .  S
N917        H921   1.045       .  S
N917        H922   1.046       .  S
N920        H923   1.046       .  S
N920        H924   1.045       .  S
C925        C926   1.407       .  A
C925        C930   1.408       .  A
C925        H932   1.083       .  S
C926        C927   1.417       .  A
C927        C928   1.405       .  A
C927        N934   1.438       .  S
C928        C929   1.399       .  A
C928        H933   1.084       .  S
C929        C930   1.409       .  A
C930        N931   1.438       .  S
N931        H935   1.045       .  S
N931        H936   1.046       .  S
N934        H937   1.045       .  S
N934        H938   1.046       .  S
C939        C940   1.406       .  A
C939        C944   1.402       .  A
C939        H946   1.084       .  S
C940        C941   1.414       .  A
C941        C942   1.409       .  A
C941        N948   1.432       .  S
C942        C943   1.404       .  A
C942        H947   1.084       .  S
C943        C944   1.403       .  A
C944        N945   1.432       .  S
N945        H949   1.046       .  S
N945        H950   1.045       .  S
N948        H951   1.045       .  S
N948        H952   1.046       .  S
C953        C954   1.403       .  A
C953        C958   1.401       .  A
C953        H960   1.084       .  S
C954        C955   1.409       .  A
C955        C956   1.400       .  A
C955        N962   1.433       .  S
C956        C957   1.401       .  A
C956        H961   1.084       .  S
C957        C958   1.415       .  A
C958        N959   1.438       .  S
N959        H963   1.046       .  S
N959        H964   1.044       .  S
N962        H965   1.046       .  S
N962        H966   1.046       .  S
C967        C968   1.401   1_554  A
C967        C972   1.407       .  A
C967        H974   1.084       .  S
C968        C969   1.406       .  A
C969        C970   1.404   1_556  A
C969        N976   1.439       .  S
C970        C971   1.407       .  A
C970        H975   1.084       .  S
C971        C972   1.415       .  A
C972        N973   1.437       .  S
N973        H977   1.045       .  S
N973        H978   1.046       .  S
N976        H979   1.046       .  S
N976        H980   1.045       .  S
C981        C982   1.400       .  A
C981        C986   1.398       .  A
C981        H988   1.084       .  S
C982        C983   1.416       .  A
C983        C984   1.403       .  A
C983        N990   1.438       .  S
C984        C985   1.405       .  A
C984        H989   1.084       .  S
C985        C986   1.410       .  A
C986        N987   1.433       .  S
N987        H991   1.046       .  S
N987        H992   1.046       .  S
N990        H993   1.043       .  S
N990        H994   1.046       .  S
C995        C996   1.403       .  A
C995       C1000   1.408       .  A
C995       H1002   1.084       .  S
C996        C997   1.406       .  A
C997        C998   1.402       .  A
C997       N1004   1.437       .  S
C998        C999   1.403       .  A
C998       H1003   1.084       .  S
C999       C1000   1.413       .  A
C1000      N1001   1.438       .  S
N1001      H1005   1.046       .  S
N1001      H1006   1.046       .  S
N1004      H1007   1.047       .  S
N1004      H1008   1.044       .  S
C1009      C1010   1.400       .  A
C1009      C1014   1.403       .  A
C1009      H1016   1.084       .  S
C1010      C1011   1.417       .  A
C1011      C1012   1.406       .  A
C1011      N1018   1.438       .  S
C1012      C1013   1.405       .  A
C1012      H1017   1.084       .  S
C1013      C1014   1.413       .  A
C1014      N1015   1.432       .  S
N1015      H1019   1.046       .  S
N1015      H1020   1.046       .  S
N1018      H1021   1.044       .  S
N1018      H1022   1.046       .  S
C1023      C1024   1.402   1_556  A
C1023      C1028   1.407       .  A
C1023      H1030   1.084   1_556  S
C1024      C1025   1.407   1_554  A
C1025      C1026   1.407       .  A
C1025      N1032   1.438       .  S
C1026      C1027   1.409       .  A
C1026      H1031   1.083       .  S
C1027      C1028   1.415       .  A
C1028      N1029   1.437       .  S
N1029      H1033   1.045       .  S
N1029      H1034   1.046       .  S
N1032      H1035   1.046   1_556  S
N1032      H1036   1.045       .  S
C1037      C1038   1.401       .  A
C1037      C1042   1.408       .  A
C1037      H1044   1.084       .  S
C1038      C1039   1.407       .  A
C1039      C1040   1.405       .  A
C1039      N1046   1.438       .  S
C1040      C1041   1.408       .  A
C1040      H1045   1.083       .  S
C1041      C1042   1.417       .  A
C1042      N1043   1.437       .  S
N1043      H1047   1.045       .  S
N1043      H1048   1.046       .  S
N1046      H1049   1.045       .  S
N1046      H1050   1.046       .  S
C1051      C1052   1.407       .  A
C1051      C1056   1.401       .  A
C1051      H1058   1.084       .  S
C1052      C1053   1.421       .  A
C1053      C1054   1.403       .  A
C1053      N1060   1.432       .  S
C1054      C1055   1.402       .  A
C1054      H1059   1.084       .  S
C1055      C1056   1.414       .  A
C1056      N1057   1.439       .  S
N1057      H1061   1.045       .  S
N1057      H1062   1.044       .  S
N1060      H1063   1.045       .  S
N1060      H1064   1.045       .  S
C1065      C1066   1.399       .  A
C1065      C1070   1.397       .  A
C1065      H1072   1.084       .  S
C1066      C1067   1.416       .  A
C1067      C1068   1.402       .  A
C1067      N1074   1.438       .  S
C1068      C1069   1.404       .  A
C1068      H1073   1.084       .  S
C1069      C1070   1.410       .  A
C1070      N1071   1.433       .  S
N1071      H1075   1.045       .  S
N1071      H1076   1.046       .  S
N1074      H1077   1.043       .  S
N1074      H1078   1.045   1_455  S
C1079      C1080   1.404       .  A
C1079      C1084   1.407       .  A
C1079      H1086   1.084       .  S
C1080      C1081   1.412       .  A
C1081      C1082   1.399       .  A
C1081      N1088   1.438       .  S
C1082      C1083   1.398       .  A
C1082      H1087   1.084       .  S
C1083      C1084   1.409       .  A
C1084      N1085   1.438       .  S
N1085      H1089   1.045       .  S
N1085      H1090   1.046       .  S
N1088      H1091   1.045       .  S
N1088      H1092   1.046       .  S
C1093      C1094   1.400       .  A
C1093      C1098   1.401       .  A
C1093      H1100   1.084       .  S
C1094      C1095   1.408       .  A
C1095      C1096   1.406       .  A
C1095      N1102   1.438       .  S
C1096      C1097   1.405       .  A
C1096      H1101   1.084       .  S
C1097      C1098   1.411       .  A
C1098      N1099   1.438       .  S
N1099      H1103   1.046       .  S
N1099      H1104   1.045       .  S
N1102      H1105   1.046       .  S
N1102      H1106   1.045       .  S
C1107      C1108   1.403       .  A
C1107      C1112   1.399       .  A
C1107      H1114   1.084       .  S
C1108      C1109   1.407       .  A
C1109      C1110   1.395       .  A
C1109      N1116   1.433       .  S
C1110      C1111   1.401       .  A
C1110      H1115   1.085       .  S
C1111      C1112   1.415       .  A
C1112      N1113   1.438       .  S
N1113      H1117   1.046   1_655  S
N1113      H1118   1.043   1_655  S
N1116      H1119   1.046       .  S
N1116      H1120   1.046       .  S
C1121      C1122   1.402   1_554  A
C1121      C1126   1.409       .  A
C1121      H1128   1.084   1_545  S
C1122      C1123   1.407       .  A
C1123      C1124   1.407       .  A
C1123      N1130   1.438       .  S
C1124      C1125   1.408       .  A
C1124      H1129   1.083       .  S
C1125      C1126   1.418   1_556  A
C1126      N1127   1.437       .  S
N1127      H1131   1.046   1_545  S
N1127      H1132   1.045       .  S
N1130      H1133   1.046       .  S
N1130      H1134   1.045       .  S
C1135      C1136   1.406       .  A
C1135      C1140   1.397       .  A
C1135      H1142   1.084       .  S
C1136      C1137   1.418       .  A
C1137      C1138   1.404       .  A
C1137      N1144   1.438   1_556  S
C1138      C1139   1.399       .  A
C1138      H1143   1.084   1_556  S
C1139      C1140   1.409       .  A
C1140      N1141   1.432   1_545  S
N1141      H1145   1.046       .  S
N1141      H1146   1.045       .  S
N1144      H1147   1.045   1_554  S
N1144      H1148   1.047       .  S
C1149      C1150   1.406       .  A
C1149      C1154   1.403       .  A
C1149      H1156   1.084       .  S
C1150      C1151   1.414       .  A
C1151      C1152   1.404       .  A
C1151      N1158   1.432       .  S
C1152      C1153   1.401       .  A
C1152      H1157   1.084       .  S
C1153      C1154   1.415       .  A
C1154      N1155   1.438       .  S
N1155      H1159   1.046       .  S
N1155      H1160   1.043       .  S
N1158      H1161   1.046       .  S
N1158      H1162   1.045       .  S
C1163      C1164   1.405       .  A
C1163      C1168   1.403       .  A
C1163      H1170   1.084       .  S
C1164      C1165   1.418       .  A
C1165      C1166   1.409       .  A
C1165      N1172   1.438       .  S
C1166      C1167   1.401       .  A
C1166      H1171   1.084       .  S
C1167      C1168   1.415       .  A
C1168      N1169   1.439       .  S
N1169      H1173   1.046       .  S
N1169      H1174   1.043       .  S
N1172      H1175   1.046       .  S
N1172      H1176   1.045       .  S
C1177      C1178   1.403       .  A
C1177      C1182   1.409       .  A
C1177      H1184   1.084       .  S
C1178      C1179   1.413       .  A
C1179      C1180   1.403       .  A
C1179      N1186   1.438       .  S
C1180      C1181   1.408       .  A
C1180      H1185   1.084       .  S
C1181      C1182   1.416       .  A
C1182      N1183   1.438       .  S
N1183      H1187   1.046       .  S
N1183      H1188   1.045       .  S
N1186      H1189   1.044       .  S
N1186      H1190   1.046       .  S
C1191      C1192   1.400       .  A
C1191      C1196   1.400       .  A
C1191      H1198   1.084       .  S
C1192      C1193   1.408       .  A
C1193      C1194   1.409       .  A
C1193      N1200   1.437       .  S
C1194      C1195   1.409       .  A
C1194      H1199   1.083       .  S
C1195      C1196   1.423       .  A
C1196      N1197   1.432       .  S
N1197      H1201   1.045       .  S
N1197      H1202   1.045       .  S
N1200      H1203   1.045       .  S
N1200      H1204   1.045       .  S
C1205      C1206   1.400       .  A
C1205      C1210   1.400       .  A
C1205      H1212   1.084       .  S
C1206      C1207   1.407       .  A
C1207      C1208   1.401       .  A
C1207      N1214   1.437       .  S
C1208      C1209   1.402       .  A
C1208      H1213   1.084       .  S
C1209      C1210   1.411       .  A
C1210      N1211   1.433       .  S
N1211      H1215   1.045       .  S
N1211      H1216   1.046       .  S
N1214      H1217   1.046       .  S
N1214      H1218   1.045       .  S
C1219      C1220   1.399       .  A
C1219      C1224   1.400       .  A
C1219      H1226   1.084       .  S
C1220      C1221   1.408       .  A
C1221      C1222   1.403       .  A
C1221      N1228   1.438       .  S
C1222      C1223   1.403       .  A
C1222      H1227   1.084       .  S
C1223      C1224   1.410       .  A
C1224      N1225   1.438       .  S
N1225      H1229   1.046       .  S
N1225      H1230   1.046       .  S
N1228      H1231   1.045       .  S
N1228      H1232   1.046       .  S
C1233      C1234   1.403       .  A
C1233      C1238   1.408       .  A
C1233      H1240   1.084       .  S
C1234      C1235   1.414       .  A
C1235      C1236   1.403       .  A
C1235      N1242   1.438       .  S
C1236      C1237   1.408       .  A
C1236      H1241   1.084       .  S
C1237      C1238   1.416       .  A
C1238      N1239   1.438       .  S
N1239      H1243   1.045       .  S
N1239      H1244   1.046       .  S
N1242      H1245   1.042       .  S
N1242      H1246   1.046       .  S
C1247      C1248   1.400       .  A
C1247      C1252   1.406       .  A
C1247      H1254   1.084       .  S
C1248      C1249   1.413       .  A
C1249      C1250   1.402       .  A
C1249      N1256   1.439       .  S
C1250      C1251   1.407       .  A
C1250      H1255   1.084       .  S
C1251      C1252   1.419       .  A
C1252      N1253   1.438       .  S
N1253      H1257   1.046       .  S
N1253      H1258   1.045       .  S
N1256      H1259   1.043       .  S
N1256      H1260   1.046       .  S
C1261      C1262   1.404       .  A
C1261      C1266   1.402       .  A
C1261      H1268   1.084       .  S
C1262      C1263   1.415       .  A
C1263      C1264   1.394       .  A
C1263      N1270   1.433       .  S
C1264      C1265   1.400       .  A
C1264      H1269   1.084       .  S
C1265      C1266   1.415       .  A
C1266      N1267   1.438       .  S
N1267      H1271   1.046       .  S
N1267      H1272   1.043       .  S
N1270      H1273   1.045       .  S
N1270      H1274   1.045       .  S
C1275      C1276   1.404       .  A
C1275      C1280   1.403       .  A
C1275      H1282   1.084       .  S
C1276      C1277   1.409       .  A
C1277      C1278   1.400       .  A
C1277      N1284   1.433       .  S
C1278      C1279   1.401       .  A
C1278      H1283   1.084       .  S
C1279      C1280   1.405       .  A
C1280      N1281   1.432       .  S
N1281      H1285   1.046       .  S
N1281      H1286   1.045       .  S
N1284      H1287   1.046       .  S
N1284      H1288   1.045       .  S
C1289      C1290   1.398       .  A
C1289      C1294   1.403       .  A
C1289      H1296   1.084       .  S
C1290      C1291   1.404   1_554  A
C1291      C1292   1.405       .  A
C1291      N1298   1.432       .  S
C1292      C1293   1.408       .  A
C1292      H1297   1.083       .  S
C1293      C1294   1.418   1_556  A
C1294      N1295   1.438       .  S
N1295      H1299   1.046       .  S
N1295      H1300   1.045   1_554  S
N1298      H1301   1.046       .  S
N1298      H1302   1.045   1_556  S
C1303      C1304   1.406       .  A
C1303      C1308   1.402       .  A
C1303      H1310   1.084       .  S
C1304      C1305   1.420       .  A
C1305      C1306   1.400       .  A
C1305      N1312   1.432       .  S
C1306      C1307   1.400       .  A
C1306      H1311   1.084       .  S
C1307      C1308   1.414       .  A
C1308      N1309   1.438       .  S
N1309      H1313   1.046   1_554  S
N1309      H1314   1.044       .  S
N1312      H1315   1.046       .  S
N1312      H1316   1.044   1_554  S
C1317      C1318   1.406       .  A
C1317      C1322   1.407       .  A
C1317      H1324   1.083       .  S
C1318      C1319   1.419       .  A
C1319      C1320   1.407       .  A
C1319      N1326   1.438       .  S
C1320      C1321   1.399       .  A
C1320      H1325   1.084       .  S
C1321      C1322   1.411       .  A
C1322      N1323   1.439       .  S
N1323      H1327   1.046       .  S
N1323      H1328   1.045       .  S
N1326      H1329   1.046       .  S
N1326      H1330   1.046       .  S
C1331      C1332   1.404       .  A
C1331      C1336   1.407       .  A
C1331      H1338   1.084       .  S
C1332      C1333   1.415       .  A
C1333      C1334   1.400       .  A
C1333      N1340   1.439       .  S
C1334      C1335   1.406       .  A
C1334      H1339   1.084       .  S
C1335      C1336   1.413       .  A
C1336      N1337   1.432       .  S
N1337      H1341   1.046       .  S
N1337      H1342   1.045       .  S
N1340      H1343   1.044       .  S
N1340      H1344   1.045       .  S
C1345      C1346   1.401       .  A
C1345      C1350   1.401       .  A
C1345      H1352   1.084       .  S
C1346      C1347   1.414       .  A
C1347      C1348   1.403       .  A
C1347      N1354   1.438       .  S
C1348      C1349   1.405       .  A
C1348      H1353   1.084       .  S
C1349      C1350   1.412       .  A
C1350      N1351   1.438       .  S
N1351      H1355   1.046       .  S
N1351      H1356   1.045       .  S
N1354      H1357   1.044       .  S
N1354      H1358   1.045       .  S
C1359      C1360   1.399       .  A
C1359      C1364   1.408       .  A
C1359      H1366   1.084       .  S
C1360      C1361   1.408       .  A
C1361      C1362   1.409       .  A
C1361      N1368   1.437       .  S
C1362      C1363   1.408       .  A
C1362      H1367   1.083       .  S
C1363      C1364   1.421       .  A
C1364      N1365   1.438       .  S
N1365      H1369   1.046       .  S
N1365      H1370   1.045       .  S
N1368      H1371   1.046       .  S
N1368      H1372   1.045       .  S
C1373      C1374   1.403       .  A
C1373      C1378   1.408       .  A
C1373      H1380   1.084       .  S
C1374      C1375   1.415       .  A
C1375      C1376   1.405       .  A
C1375      N1382   1.438       .  S
C1376      C1377   1.408       .  A
C1376      H1381   1.084       .  S
C1377      C1378   1.415       .  A
C1378      N1379   1.438       .  S
N1379      H1383   1.046       .  S
N1379      H1384   1.046       .  S
N1382      H1385   1.043       .  S
N1382      H1386   1.046       .  S
C1387      C1388   1.399       .  A
C1387      C1392   1.400       .  A
C1387      H1394   1.085       .  S
C1388      C1389   1.412       .  A
C1389      C1390   1.398       .  A
C1389      N1396   1.439       .  S
C1390      C1391   1.404       .  A
C1390      H1395   1.084       .  S
C1391      C1392   1.420       .  A
C1392      N1393   1.440       .  S
N1393      H1397   1.046       .  S
N1393      H1398   1.040       .  S
N1396      H1399   1.044       .  S
N1396      H1400   1.045       .  S
C1401      C1402   1.406       .  A
C1401      C1406   1.399       .  A
C1401      H1408   1.084       .  S
C1402      C1403   1.415       .  A
C1403      C1404   1.409       .  A
C1403      N1410   1.438       .  S
C1404      C1405   1.404       .  A
C1404      H1409   1.084       .  S
C1405      C1406   1.413       .  A
C1406      N1407   1.439       .  S
N1407      H1411   1.046       .  S
N1407      H1412   1.043       .  S
N1410      H1413   1.046       .  S
N1410      H1414   1.046       .  S
C1415      C1416   1.408       .  A
C1415      C1420   1.401       .  A
C1415      H1422   1.084       .  S
C1416      C1417   1.416       .  A
C1417      C1418   1.408       .  A
C1417      N1424   1.438       .  S
C1418      C1419   1.403       .  A
C1418      H1423   1.084       .  S
C1419      C1420   1.413       .  A
C1420      N1421   1.438       .  S
N1421      H1425   1.046       .  S
N1421      H1426   1.044       .  S
N1424      H1427   1.045       .  S
N1424      H1428   1.046       .  S
C1429      C1430   1.406       .  A
C1429      C1434   1.403       .  A
C1429      H1436   1.083       .  S
C1430      C1431   1.414       .  A
C1431      C1432   1.399       .  A
C1431      N1438   1.433       .  S
C1432      C1433   1.398       .  A
C1432      H1437   1.084       .  S
C1433      C1434   1.405       .  A
C1434      N1435   1.432       .  S
N1435      H1439   1.045       .  S
N1435      H1440   1.046       .  S
N1438      H1441   1.046       .  S
N1438      H1442   1.045       .  S
C1443      C1444   1.404       .  A
C1443      C1448   1.407       .  A
C1443      H1450   1.084       .  S
C1444      C1445   1.411       .  A
C1445      C1446   1.400       .  A
C1445      N1452   1.438       .  S
C1446      C1447   1.398       .  A
C1446      H1451   1.084       .  S
C1447      C1448   1.410       .  A
C1448      N1449   1.438       .  S
N1449      H1453   1.046       .  S
N1449      H1454   1.045       .  S
N1452      H1455   1.046       .  S
N1452      H1456   1.045       .  S
