geometry optimzed in LAMMPS
_audit_creation_date              2020-12-01 
_audit_creation_method            'lammps2cif' 
_symmetry_space_group_name_H-M    'P1' 
_symmetry_Int_Tables_number       1 
_symmetry_cell_setting            triclinic 
loop_ 
_symmetry_equiv_pos_as_xyz 
  x,y,z 
_cell_length_a                    37.56358827 
_cell_length_b                    38.238646074443004 
_cell_length_c                    73.52741170635079 
_cell_angle_alpha                 89.96132194542619 
_cell_angle_beta                  90.13375112431773 
_cell_angle_gamma                 90.01364550911266 
loop_ 
_atom_site_label 
_atom_site_type_symbol 
_atom_site_fract_x 
_atom_site_fract_y 
_atom_site_fract_z 
_atom_site_charge 
C1          C  0.44477773  0.30582935  0.35334142     0.03200
C2          C  0.41665661  0.28721594  0.34518518    -0.12900
C3          C  0.40418753  0.29629812  0.32776848     0.00700
C4          C  0.42031913  0.32410060  0.31840589    -0.11400
C5          C  0.44864477  0.34273896  0.32622728     0.03200
C6          C  0.46089885  0.33322933  0.34360854    -0.10900
H7          H  0.40360236  0.26657393  0.35272081     0.08800
H8          H  0.41069641  0.33122833  0.30501964     0.06300
H9          H  0.48282469  0.34746403  0.34969489     0.06200
C10         C  0.40952221  0.33469281  0.20160770     0.03200
C11         C  0.43516945  0.35542347  0.21052584    -0.12900
C12         C  0.43957921  0.35331797  0.22944658     0.00700
C13         C  0.41865175  0.32988630  0.23947269    -0.11400
C14         C  0.39416707  0.30786121  0.23072382     0.03200
C15         C  0.39009149  0.31000997  0.21178292    -0.10900
H16         H  0.44971299  0.37514437  0.20300875     0.08800
H17         H  0.42127278  0.32900826  0.25415341     0.06300
H18         H  0.37041474  0.29373735  0.20509767     0.06200
C19         C  0.17269089  0.33693004  0.35866977     0.03200
C20         C  0.14767153  0.35757814  0.34920955    -0.12900
C21         C  0.14296183  0.35374171  0.33035523     0.00700
C22         C  0.16334715  0.32887443  0.32095108    -0.11400
C23         C  0.18689914  0.30671533  0.33034290     0.03200
C24         C  0.19107204  0.31057568  0.34919095    -0.10900
H25         H  0.13365201  0.37829653  0.35622786     0.08800
H26         H  0.16076457  0.32665488  0.30630792     0.06300
H27         H  0.21007638  0.29423012  0.35632481     0.06200
C28         C  0.43979845  0.10488814  0.20418736     0.03200
C29         C  0.41298046  0.12334754  0.21335773    -0.12900
C30         C  0.40356249  0.11466325  0.23131118     0.00700
C31         C  0.42140427  0.08709927  0.24015388    -0.11400
C32         C  0.44880693  0.06879594  0.23130786     0.03200
C33         C  0.45783779  0.07800744  0.21339110    -0.10900
H34         H  0.39861097  0.14369243  0.20622001     0.08800
H35         H  0.41421207  0.08012074  0.25395128     0.06300
H36         H  0.47880913  0.06404760  0.20643298     0.06200
C37         C  0.46484827  0.37279436  0.31662254     0.42600
N38         N  0.99847051  0.41687994  0.31118179     0.01400
C39         C  0.00008389  0.02216258  0.23430479    -0.06400
H40         H  0.01094221  0.38953803  0.22055826     0.06900
C41         C  0.12836137  0.39165455  0.25835558    -0.06800
Co42       Co  0.47566890  0.45665443  0.27792785     0.74200
N43         N  0.00289193  0.41953824  0.24512136    -0.26000
Co44       Co  0.04354131  0.45686058  0.24600841     0.74100
C45         C  0.11649589  0.37488296  0.24153969     0.42700
N46         N  0.10335010  0.41766799  0.30134052     0.01100
N47         N  0.08234351  0.41820088  0.24737788     0.01200
N48         N  0.45581021  0.02182960  0.25515089    -0.46800
H49         H  0.42986455  0.38451634  0.29146976     0.06900
N50         N  0.97759890  0.41914826  0.25753670     0.01500
N51         N  0.08430153  0.49415042  0.24716966     0.01200
C52         C  0.12308542  0.03310815  0.24010642     0.42800
N53         N  0.07803459  0.41778520  0.31374968    -0.25400
C54         C  0.45119314  0.01952174  0.30128294    -0.06300
N55         N  0.99338198  0.39078974  0.32272285    -0.46500
N56         N  0.09338027  0.01661528  0.23419641    -0.46700
C57         C  0.46149313  0.03462437  0.31870412     0.42600
N58         N  0.97863456  0.49585749  0.25794358     0.01400
N59         N  0.07661114  0.49351512  0.31374037    -0.25400
N60         N  0.47478631  0.41746492  0.29788025    -0.25900
N61         N  0.10241875  0.49427481  0.30158418     0.01100
H62         H  0.06461044  0.02504490  0.33720526     0.07000
H63         H  0.15553729  0.02252694  0.26610235     0.07000
N64         N  0.00463899  0.49554065  0.24588419    -0.26000
N65         N  0.10570946  0.41814450  0.26083104    -0.25600
N66         N  0.99749300  0.49308915  0.31212302     0.01400
C67         C  0.46279796  0.37830816  0.23907167     0.42800
C68         C  0.08584832  0.39354540  0.32638866    -0.06800
N69         N  0.10700737  0.49412679  0.26089910    -0.25600
H70         H  0.15082258  0.38572837  0.26704202     0.07000
N71         N  0.45309637  0.39501360  0.25441101    -0.46800
H72         H  0.07093563  0.38871904  0.33870403     0.07000
C73         C  0.11369597  0.03714109  0.31949509     0.42700
C74         C  0.45235220  0.39048596  0.30013266    -0.06300
Co75       Co  0.03753050  0.45524343  0.31306201     0.73800
N76         N  0.12849090  0.39422624  0.30474305    -0.46500
C77         C  0.46771004  0.03963497  0.24045173     0.42900
N78         N  0.99008709  0.01663911  0.32480699    -0.46500
Co79       Co  0.10524757  0.45612606  0.28119593     0.73900
C80         C  0.13214989  0.01822327  0.25778948    -0.06800
C81         C  0.99564704  0.39475801  0.23270066    -0.06400
N82         N  0.47473245  0.49388719  0.29844000    -0.25900
N83         N  0.08795848  0.39287700  0.23542410    -0.46700
H84         H  0.01713656  0.02800588  0.22287482     0.07000
C85         C  0.08145019  0.01954771  0.32564927    -0.06800
Cl86       Cl  0.04052057  0.45624119  0.27954343    -0.49800
C87         C  0.11915261  0.37768093  0.32023368     0.42700
H88         H  0.42840912  0.02531007  0.29277694     0.06900
N89         N  0.12528226  0.02003884  0.30454159    -0.46500
C90         C  0.14189957  0.30844594  0.20534282     0.03200
C91         C  0.12445392  0.33621263  0.21420809    -0.12900
C92         C  0.13348910  0.34513376  0.23216337     0.00700
C93         C  0.15984165  0.32598284  0.24122071    -0.11400
C94         C  0.17791183  0.29870120  0.23257752     0.03200
C95         C  0.16861421  0.28977434  0.21468276    -0.10900
H96         H  0.10391996  0.35080382  0.20714752     0.08800
H97         H  0.16638116  0.33241601  0.25512555     0.06300
H98         H  0.18283797  0.26896925  0.20783796     0.06200
C99         C  0.41078084  0.07507668  0.35788352     0.03200
C100        C  0.43589990  0.05501426  0.34824163    -0.12900
C101        C  0.43998673  0.05932685  0.32942290     0.00700
C102        C  0.41965116  0.08451455  0.32032686    -0.11400
C103        C  0.39511084  0.10527592  0.32971443     0.03200
C104        C  0.39118483  0.10097190  0.34857613    -0.10900
H105        H  0.45068217  0.03463679  0.35518285     0.08800
H106        H  0.42217981  0.08724007  0.30571013     0.06300
H107        H  0.37082082  0.11561918  0.35567924     0.06200
C108        C  0.14174206  0.10505925  0.35436518     0.03200
C109        C  0.16853684  0.12262659  0.34463394    -0.12900
C110        C  0.17774151  0.11216535  0.32695348     0.00700
C111        C  0.15941305  0.08428477  0.31882960    -0.11400
C112        C  0.13217354  0.06688308  0.32815965     0.03200
C113        C  0.12343751  0.07740122  0.34590168    -0.10900
H114        H  0.18253276  0.14425698  0.35091642     0.08800
H115        H  0.16619684  0.07608711  0.30518477     0.06300
H116        H  0.10332207  0.06323076  0.35341014     0.06200
C117        C  0.17501747  0.07185277  0.20044809     0.03200
C118        C  0.15016668  0.05169883  0.21034925    -0.12900
C119        C  0.14593850  0.05658456  0.22918230     0.00700
C120        C  0.16634026  0.08208675  0.23806093    -0.11400
C121        C  0.18997659  0.10339884  0.22836688     0.03200
C122        C  0.19396406  0.09848933  0.20955009    -0.10900
H123        H  0.13530786  0.03118217  0.20358289     0.08800
H124        H  0.16396069  0.08528887  0.25266011     0.06300
H125        H  0.21378678  0.11361164  0.20231008     0.06200
C126        C  0.37026874  0.28551174  0.24160332     0.42600
N127        N  0.32897290  0.24869472  0.24794322     0.01400
C128        C  0.22632854  0.24976981  0.32659471    -0.06400
H129        H  0.36202942  0.22949238  0.33742854     0.06900
C130        C  0.35489213  0.11773098  0.30162541    -0.06800
Co131      Co  0.29022661  0.26916253  0.28172866     0.74200
N132        N  0.32880717  0.24120454  0.31426140    -0.26000
Co133      Co  0.28982837  0.20255093  0.31359831     0.74100
C134        C  0.37027936  0.12720857  0.31913695     0.42700
N135        N  0.33072874  0.14520793  0.25831939     0.01100
N136        N  0.32845203  0.16324897  0.31260402     0.01200
N137        N  0.22711413  0.29149153  0.30482144    -0.46800
H138        H  0.35916895  0.31749249  0.26746487     0.06900
N139        N  0.32913486  0.26656478  0.30207331     0.01500
N140        N  0.25097068  0.16390843  0.31168509     0.01200
C141        C  0.20717533  0.12964377  0.31723486     0.42800
N142        N  0.33027238  0.17070037  0.24620013    -0.25400
C143        C  0.22463137  0.29219138  0.25900371    -0.06300
N144        N  0.35287733  0.25691872  0.23539697    -0.46500
N145        N  0.22498147  0.15793466  0.32341768    -0.46700
C146        C  0.20734739  0.28088317  0.24219218     0.42600
N147        N  0.25118982  0.26696870  0.30168285     0.01400
N148        N  0.25318869  0.16868532  0.24533036    -0.25400
N149        N  0.32892348  0.27090022  0.26166301    -0.25900
N150        N  0.25286067  0.14387039  0.25780742     0.01100
H151        H  0.22463389  0.17502695  0.21996670     0.07000
H152        H  0.21929107  0.09608754  0.29189678     0.07000
N153        N  0.25136218  0.24218451  0.31416830    -0.26000
N154        N  0.32910448  0.14117859  0.29882173    -0.25600
N155        N  0.25137035  0.24698800  0.24791617     0.01400
C156        C  0.37352826  0.27781748  0.31953982     0.42800
C157        C  0.35690502  0.16583645  0.23441163    -0.06800
N158        N  0.25161821  0.14097424  0.29826212    -0.25600
H159        H  0.36039438  0.09538315  0.29307136     0.07000
N160        N  0.35543626  0.28905768  0.30474601    -0.46800
H161        H  0.36253796  0.18231204  0.22281371     0.07000
C162        C  0.21332890  0.12762151  0.23848380     0.42700
C163        C  0.35433724  0.29488210  0.25897825    -0.06300
Co164      Co  0.29088604  0.20888012  0.24646176     0.73800
N165        N  0.35673288  0.12245026  0.25538604    -0.46500
C166        C  0.20998128  0.28235129  0.32018749     0.42900
N167        N  0.22551713  0.25284143  0.23598676    -0.46500
Co168      Co  0.29111128  0.14217749  0.27830069     0.73900
C169        C  0.22484121  0.11827058  0.30056075    -0.06800
C170        C  0.35583596  0.24606775  0.32593037    -0.06400
N171        N  0.25150695  0.26978519  0.26139709    -0.25900
N172        N  0.35225391  0.15536987  0.32534353    -0.46700
H173        H  0.22127815  0.23517096  0.33892691     0.07000
C174        C  0.22919650  0.16056093  0.23239964    -0.06800
Cl175      Cl  0.29048402  0.20567568  0.28002083    -0.49800
C176        C  0.37448555  0.13382569  0.24052881     0.42700
H177        H  0.21886754  0.31420390  0.26772760     0.06900
N178        N  0.22957397  0.11884374  0.25420353    -0.46500
C179        C  0.30037111  0.47394359  0.51180717     0.02400
C180        C  0.27515689  0.44639880  0.51229771     0.02300
C181        C  0.26400081  0.43305687  0.52914259    -0.18200
C182        C  0.27748061  0.44643886  0.54552641     0.02400
C183        C  0.30345568  0.47328572  0.54498331     0.02300
C184        C  0.31395139  0.48725175  0.52819365    -0.18200
H185        H  0.33401540  0.50763650  0.52784869     0.04400
H186        H  0.24411596  0.41250874  0.52949589     0.04400
C187        C  0.06392753  0.21130178  0.04562355     0.02400
C188        C  0.03786857  0.18458808  0.04501707     0.02300
C189        C  0.02753132  0.17071805  0.02815098    -0.18200
C190        C  0.04151435  0.18397710  0.01181213     0.02400
C191        C  0.06707086  0.21127945  0.01240317     0.02300
C192        C  0.07789965  0.22459280  0.02933685    -0.18200
H193        H  0.09782125  0.24509301  0.02986240     0.04400
H194        H  0.50731695  0.15048863  0.02769748     0.04400
C195        C  0.03971774  0.22713894  0.51377234     0.02400
C196        C  0.06534241  0.19995733  0.51409449     0.02300
C197        C  0.07741713  0.18695110  0.53086360    -0.18200
C198        C  0.06531158  0.20108443  0.54735955     0.02400
C199        C  0.04045212  0.22895372  0.54700324     0.02300
C200        C  0.02817728  0.24182457  0.53021500    -0.18200
H201        H  0.50844179  0.26250898  0.52996713     0.04400
H202        H  0.09699561  0.16612326  0.53107449     0.04400
C203        C  0.30608139  0.43698548  0.04661986     0.02400
C204        C  0.27927584  0.46309772  0.04648712     0.02300
C205        C  0.26487991  0.47401597  0.02977274    -0.18200
C206        C  0.27713979  0.46014787  0.01324995     0.02400
C207        C  0.30507626  0.43525767  0.01332185     0.02300
C208        C  0.31882042  0.42362524  0.03003128    -0.18200
H209        H  0.33968663  0.40404165  0.03012524     0.04400
H210        H  0.24404516  0.99363524  0.02960569     0.04400
C211        C  0.39905806  0.34988893  0.85385292     0.03200
C212        C  0.42605612  0.36926458  0.84521994    -0.12900
C213        C  0.43638932  0.36161110  0.82731284     0.00700
C214        C  0.41931662  0.33444734  0.81790497    -0.11400
C215        C  0.39221804  0.31487171  0.82616409     0.03200
C216        C  0.38203481  0.32291817  0.84408780    -0.10900
H217        H  0.43997424  0.38943425  0.85271277     0.08800
H218        H  0.42729329  0.32853958  0.80410685     0.06300
H219        H  0.36100405  0.30799167  0.85049286     0.06200
C220        C  0.43400802  0.08542576  0.85673329     0.03200
C221        C  0.40868921  0.10545652  0.84715998    -0.12900
C222        C  0.40381837  0.10068298  0.82841833     0.00700
C223        C  0.42377109  0.07530792  0.81931998    -0.11400
C224        C  0.44844116  0.05454187  0.82867882     0.03200
C225        C  0.45308317  0.05920393  0.84747494    -0.10900
H226        H  0.39426339  0.12603853  0.85408824     0.08800
H227        H  0.42069582  0.07229909  0.80473927     0.06300
H228        H  0.47351794  0.04449525  0.85455221     0.06200
C229        C  0.20258249  0.04899059  0.85249674     0.03200
C230        C  0.22087178  0.07667400  0.84408128    -0.12900
C231        C  0.21130146  0.08799258  0.82656624     0.00700
C232        C  0.18352323  0.07101905  0.81734968    -0.11400
C233        C  0.16525943  0.04305549  0.82545310     0.03200
C234        C  0.17503141  0.03211607  0.84297871    -0.10900
H235        H  0.24219983  0.08966795  0.85132808     0.08800
H236        H  0.17615337  0.07973579  0.80385194     0.06300
H237        H  0.16027686  0.01126023  0.84949733     0.06200
C238        C  0.16698602  0.31700695  0.85729248     0.03200
C239        C  0.14755358  0.34315647  0.84810204    -0.12900
C240        C  0.15184558  0.34826900  0.82929466     0.00700
C241        C  0.17608041  0.32727665  0.81969572    -0.11400
C242        C  0.19714186  0.30255493  0.82885511     0.03200
C243        C  0.19270440  0.29780711  0.84762810    -0.10900
H244        H  0.12731234  0.35782369  0.85527663     0.08800
H245        H  0.17868216  0.33030497  0.80509560     0.06300
H246        H  0.20818083  0.27794335  0.85457282     0.06200
C247        C  0.16808884  0.08287757  0.70001994     0.03200
C248        C  0.19334678  0.10267139  0.70981125    -0.12900
C249        C  0.19753839  0.09788127  0.72865606     0.00700
C250        C  0.17702313  0.07249083  0.73756310    -0.11400
C251        C  0.15312440  0.05137218  0.72786415     0.03200
C252        C  0.14900669  0.05639987  0.70908459    -0.10900
H253        H  0.20756764  0.12366744  0.70309881     0.08800
H254        H  0.17931394  0.06941925  0.75218044     0.06300
H255        H  0.12936519  0.04117217  0.70172964     0.06200
C256        C  0.40202113  0.05514389  0.70324764     0.03200
C257        C  0.38420815  0.08209571  0.71238210    -0.12900
C258        C  0.39346339  0.09127986  0.73027649     0.00700
C259        C  0.42098299  0.07298708  0.73911862    -0.11400
C260        C  0.43854714  0.04531191  0.73028313     0.03200
C261        C  0.42886983  0.03664556  0.71237300    -0.10900
H262        H  0.36321745  0.09606964  0.70538341     0.08800
H263        H  0.42833848  0.07992357  0.75291139     0.06300
H264        H  0.44300448  0.01622065  0.70522245     0.06200
C265        C  0.37540658  0.28539386  0.81628425     0.42600
N266        N  0.34180591  0.24142188  0.81045540     0.01400
C267        C  0.34153970  0.13693471  0.73332145    -0.06400
H268        H  0.32702684  0.26930013  0.71982873     0.06900
C269        C  0.21056290  0.26413491  0.75739703    -0.06800
Co270      Co  0.36490720  0.20255724  0.77702139     0.74200
N271        N  0.33628033  0.23924850  0.74429724    -0.26000
Co272      Co  0.29673530  0.20089342  0.74511652     0.74100
C273        C  0.22207009  0.28122405  0.74062258     0.42700
N274        N  0.23692312  0.23865870  0.80024950     0.01100
N275        N  0.25704396  0.23853024  0.74645485     0.01200
N276        N  0.38607729  0.13806654  0.75413202    -0.46800
H277        H  0.41005996  0.27462445  0.79098144     0.06900
N278        N  0.36166797  0.24021746  0.75671368     0.01500
N279        N  0.25707770  0.16250464  0.74632341     0.01200
C280        C  0.21985247  0.12190967  0.73954523     0.42800
N281        N  0.26238850  0.23906650  0.81263409    -0.25400
C282        C  0.39129927  0.14024058  0.80030991    -0.06300
N283        N  0.34707614  0.26701879  0.82229410    -0.46500
N284        N  0.24883452  0.13938626  0.73352001    -0.46700
C285        C  0.38162982  0.12491067  0.81774734     0.42600
N286        N  0.36270130  0.16350877  0.75697470     0.01400
N287        N  0.26517119  0.16308591  0.81270086    -0.25400
N288        N  0.36524400  0.24146968  0.79709621    -0.25900
N289        N  0.23927482  0.16199167  0.80054599     0.01100
H290        H  0.27825863  0.13102744  0.83587921     0.07000
H291        H  0.18716769  0.13187484  0.76545015     0.07000
N292        N  0.33655224  0.16331746  0.74494269    -0.26000
N293        N  0.23376413  0.23806468  0.75987465    -0.25600
N294        N  0.34433726  0.16533507  0.81115513     0.01400
C295        C  0.37497720  0.28173014  0.73836923     0.42800
C296        C  0.25476973  0.26386594  0.82494479    -0.06800
N297        N  0.23445424  0.16202033  0.76002508    -0.25600
H298        H  0.18808166  0.26966794  0.76608280     0.07000
N299        N  0.38538118  0.26509359  0.75364598    -0.46800
H300        H  0.26997550  0.26938658  0.83711861     0.07000
C301        C  0.22930236  0.11821692  0.81807367     0.42700
C302        C  0.38757819  0.26843952  0.79955884    -0.06300
Co303      Co  0.30347166  0.20227582  0.81212860     0.73800
N304        N  0.21181478  0.26221854  0.80337860    -0.46500
C305        C  0.37436121  0.12016688  0.73941344     0.42900
N306        N  0.35258001  0.14204143  0.82386057    -0.46500
Co307      Co  0.23542600  0.20011369  0.78022486     0.73900
C308        C  0.21024961  0.13693699  0.75708224    -0.06800
C309        C  0.34260962  0.26438617  0.73195084    -0.06400
N310        N  0.36698106  0.16518401  0.79746416    -0.25900
N311        N  0.25092229  0.26382319  0.73453670    -0.46700
H312        H  0.32442753  0.13079366  0.72192028     0.07000
C313        C  0.26112317  0.13651262  0.82439273    -0.06800
Cl314      Cl  0.30013471  0.20143402  0.77862104    -0.49800
C315        C  0.22140503  0.27947511  0.81862031     0.42700
H316        H  0.41419764  0.13513805  0.79182282     0.06900
N317        N  0.21715714  0.13554057  0.80327930    -0.46500
C318        C  0.42787087  0.32476646  0.70077471     0.03200
C319        C  0.44763998  0.34937230  0.71083934    -0.12900
C320        C  0.44337423  0.35207539  0.72973567     0.00700
C321        C  0.41868286  0.33045098  0.73855168    -0.11400
C322        C  0.39772743  0.30686258  0.72863240     0.03200
C323        C  0.40196613  0.30451520  0.70973693    -0.10900
H324        H  0.46835768  0.36443268  0.70424626     0.08800
H325        H  0.41611614  0.33157159  0.75322398     0.06300
H326        H  0.38658212  0.28544037  0.70218001     0.06200
C327        C  0.19685330  0.34787318  0.70449578     0.03200
C328        C  0.16959087  0.36605030  0.71360557    -0.12900
C329        C  0.15985235  0.35673505  0.73137303     0.00700
C330        C  0.17777254  0.32934414  0.74007049    -0.11400
C331        C  0.20476151  0.31081265  0.73124727     0.03200
C332        C  0.21440678  0.32028363  0.71348434    -0.10900
H333        H  0.15532989  0.38680960  0.70669848     0.08800
H334        H  0.17076081  0.32245722  0.75384540     0.06300
H335        H  0.23552040  0.30619830  0.70665747     0.06200
C336        C  0.46768111  0.37406307  0.74058521     0.42600
N337        N  0.00995518  0.40985743  0.74684505     0.01400
C338        C  0.11306456  0.40577337  0.82565460    -0.06400
H339        H  0.47874598  0.42858112  0.83658678     0.06900
C340        C  0.48784931  0.04113409  0.80056042    -0.06800
Co341      Co  0.04863877  0.38826390  0.78059071     0.74200
N342        N  0.01105221  0.41688062  0.81315869    -0.26000
Co343      Co  0.05091058  0.45470903  0.81250263     0.74100
C344        C  0.47254322  0.03203557  0.81810134     0.42700
N345        N  0.01091114  0.01324139  0.75725512     0.01100
N346        N  0.01321452  0.99490057  0.81150706     0.01200
N347        N  0.11131197  0.36423209  0.80381590    -0.46800
H348        H  0.47837993  0.34175568  0.76641947     0.06900
N349        N  0.01005277  0.39164035  0.80092855     0.01500
N350        N  0.09066686  0.99256754  0.81055836     0.01200
C351        C  0.13515818  0.02613482  0.81595379     0.42800
N352        N  0.01069252  0.98781516  0.74512243    -0.25400
C353        C  0.11317606  0.36362280  0.75769905    -0.06300
N354        N  0.48567579  0.40223774  0.73433078    -0.46500
N355        N  0.11698899  0.99811230  0.82222023    -0.46700
C356        C  0.13041276  0.37459849  0.74085020     0.42600
N357        N  0.08793094  0.38941067  0.80059177     0.01400
N358        N  0.08782301  0.98788417  0.74434513    -0.25400
N359        N  0.00966317  0.38761082  0.76056222    -0.25900
N360        N  0.08874946  0.01262294  0.75683481     0.01100
H361        H  0.11678118  0.98065169  0.71924340     0.07000
H362        H  0.12316786  0.05985605  0.79063318     0.07000
N363        N  0.08837957  0.41412758  0.81310520    -0.26000
N364        N  0.01291963  0.01700976  0.79772042    -0.25600
N365        N  0.08749144  0.40960121  0.74673474     0.01400
C366        C  0.46607730  0.38067198  0.81860628     0.42800
C367        C  0.48413895  0.99333917  0.73332328    -0.06800
N368        N  0.09023474  0.01553169  0.79713492    -0.25600
H369        H  0.48286431  0.06367597  0.79203233     0.07000
N370        N  0.48361855  0.36938667  0.80370969    -0.46800
H371        H  0.47803666  0.97701842  0.72172603     0.07000
C372        C  0.12928734  0.02759727  0.73789256     0.42700
C373        C  0.48362554  0.36427398  0.75792729    -0.06300
Co374      Co  0.04904134  0.44869513  0.74536422     0.73800
N375        N  0.48545422  0.03662228  0.75432968    -0.46500
C376        C  0.12851391  0.37280932  0.81929648     0.42900
N377        N  0.11294339  0.40317220  0.73473550    -0.46500
Co378      Co  0.05065145  0.01521117  0.77722724     0.73900
C379        C  0.11740480  0.03778842  0.79934063    -0.06800
C380        C  0.48429398  0.41219457  0.82495576    -0.06400
N381        N  0.08700403  0.38674631  0.76020078    -0.25900
N382        N  0.48986941  0.00339687  0.82429340    -0.46700
H383        H  0.11841457  0.42013366  0.83803100     0.07000
C384        C  0.11236704  0.99526406  0.73162383    -0.06800
Cl385      Cl  0.04984507  0.45172039  0.77892340    -0.49800
C386        C  0.46738645  0.02570567  0.73945570     0.42700
H387        H  0.11851974  0.34141284  0.76638584     0.06900
N388        N  0.11297278  0.03685875  0.75345949    -0.46500
C389        C  0.21073017  0.03894147  0.87157274    -0.03300
C390        C  0.21694758  0.06481054  0.88481346    -0.09000
C391        C  0.22234269  0.05554807  0.90299998    -0.16700
C392        C  0.22159066  0.02036465  0.90820655     0.25500
C393        C  0.21610425  0.99437948  0.89509963    -0.18300
C394        C  0.21071319  0.00357727  0.87689283    -0.07300
C395        C  0.22631763  0.01097589  0.92700493    -0.13700
C396        C  0.23098177  0.00303878  0.94269590    -0.13400
C397        C  0.23855647  0.99302205  0.96116086     0.25400
C398        C  0.23527613  0.45799722  0.96643357    -0.18800
C399        C  0.24609843  0.44755712  0.98379587    -0.07300
C400        C  0.26067197  0.47201222  0.99598177    -0.03400
C401        C  0.26225126  0.00739776  0.99094567    -0.08700
C402        C  0.25134380  0.01782945  0.97357040    -0.16300
H403        H  0.21663928  0.09226798  0.88120902     0.11800
H404        H  0.22663869  0.07585908  0.91303648     0.11100
H405        H  0.21573342  0.96703649  0.89897088     0.11000
H406        H  0.20645106  0.98305799  0.86698059     0.11600
H407        H  0.22535773  0.43860340  0.95695420     0.11600
H408        H  0.24437815  0.42019418  0.98750889     0.11600
H409        H  0.27344887  0.02660405  0.00014560     0.11700
H410        H  0.25396220  0.04500616  0.96961831     0.10600
C411        C  0.38958922  0.35717310  0.87320378    -0.03300
C412        C  0.38205637  0.32963980  0.88535491    -0.09000
C413        C  0.37382549  0.33652915  0.90359257    -0.16700
C414        C  0.37302256  0.37100852  0.91000657     0.25500
C415        C  0.38055156  0.39853333  0.89804368    -0.18300
C416        C  0.38872946  0.39172612  0.87981725    -0.07300
C417        C  0.36393102  0.37840942  0.92872723    -0.13700
C418        C  0.35572055  0.38629541  0.94409662    -0.13400
C419        C  0.34507908  0.39797317  0.96199422     0.25400
C420        C  0.34696874  0.43356936  0.96637061    -0.18800
C421        C  0.33506927  0.44547259  0.98328805    -0.07300
C422        C  0.32079462  0.42197884  0.99606085    -0.03400
C423        C  0.31986385  0.38614390  0.99183057    -0.08700
C424        C  0.33182199  0.37423158  0.97486106    -0.16300
H425        H  0.38306631  0.30271347  0.88084606     0.11800
H426        H  0.36812992  0.31495055  0.91268688     0.11100
H427        H  0.37990643  0.42534841  0.90278383     0.11000
H428        H  0.39396220  0.41358444  0.87084671     0.11600
H429        H  0.35717012  0.45223620  0.95659147     0.11600
H430        H  0.33631851  0.47316660  0.98630036     0.11600
H431        H  0.30888543  0.36759304  0.00143822     0.11700
H432        H  0.33017031  0.34662721  0.97166883     0.10600
C433        C  0.15817330  0.09296354  0.68112217    -0.03300
C434        C  0.12203311  0.09648317  0.67633719    -0.09000
C435        C  0.11220909  0.10874219  0.65912796    -0.16700
C436        C  0.13827322  0.11758973  0.64636526     0.25500
C437        C  0.17434471  0.11350473  0.65083889    -0.18300
C438        C  0.18426126  0.10139456  0.66813659    -0.07300
C439        C  0.12775583  0.13176595  0.62894612    -0.13700
C440        C  0.11767903  0.14399801  0.61466864    -0.13400
C441        C  0.10478597  0.15845454  0.59773379     0.25400
C442        C  0.10850943  0.19423848  0.59405823    -0.18800
C443        C  0.09594291  0.20816079  0.57763088    -0.07300
C444        C  0.07929793  0.18646934  0.56471884    -0.03400
C445        C  0.07577930  0.15060216  0.56846664    -0.08700
C446        C  0.08833009  0.13672362  0.58489148    -0.16300
H447        H  0.10131525  0.09084480  0.68612894     0.11800
H448        H  0.08423700  0.11189163  0.65588867     0.11100
H449        H  0.19479466  0.12018185  0.64106874     0.11000
H450        H  0.21225665  0.09885383  0.67142594     0.11600
H451        H  0.12115830  0.21135798  0.60387035     0.11600
H452        H  0.09923974  0.23582861  0.57496773     0.11600
H453        H  0.06291332  0.13344363  0.55875193     0.11700
H454        H  0.08515994  0.10904050  0.58758258     0.10600
C455        C  0.43745119  0.31721690  0.68155621    -0.03300
C456        C  0.43939101  0.28237522  0.67543848    -0.09000
C457        C  0.45129776  0.27478059  0.65790258    -0.16700
C458        C  0.46154268  0.30179839  0.64620287     0.25500
C459        C  0.45926245  0.33658133  0.65201711    -0.18300
C460        C  0.44727205  0.34427512  0.66958039    -0.07300
C461        C  0.47501086  0.29346727  0.62840879    -0.13700
C462        C  0.48627231  0.28432156  0.61382059    -0.13400
C463        C  0.99928183  0.27088765  0.59680013     0.25400
C464        C  0.01718002  0.29275461  0.58455666    -0.18800
C465        C  0.03008683  0.27925054  0.56815317    -0.07300
C466        C  0.02547464  0.24370051  0.56396478    -0.03400
C467        C  0.00710637  0.22204749  0.57619526    -0.08700
C468        C  0.49417372  0.23556294  0.59253685    -0.16300
H469        H  0.43285053  0.26084948  0.68440179     0.11800
H470        H  0.45309174  0.24775343  0.65357566     0.11100
H471        H  0.46708522  0.35771185  0.64305490     0.11000
H472        H  0.44590671  0.37134140  0.67383816     0.11600
H473        H  0.02130917  0.32012112  0.58772761     0.11600
H474        H  0.04423167  0.29630446  0.55888260     0.11600
H475        H  0.50302580  0.19463794  0.57311979     0.11700
H476        H  0.48031988  0.21842461  0.60188873     0.10600
C477        C  0.08283661  0.22623103  0.99556081    -0.03300
C478        C  0.09982120  0.20455843  0.98281286    -0.09000
C479        C  0.11242850  0.21839927  0.96641604    -0.16700
C480        C  0.10843426  0.25409363  0.96259005     0.25500
C481        C  0.09234619  0.27598688  0.97544642    -0.18300
C482        C  0.07975161  0.26217304  0.99186661    -0.07300
C483        C  0.11993214  0.26790351  0.94527147    -0.13700
C484        C  0.12896520  0.27812470  0.93041364    -0.13400
C485        C  0.13927263  0.28830973  0.91224013     0.25400
C486        C  0.14112251  0.32367439  0.90729097    -0.18800
C487        C  0.15048535  0.33319636  0.88950488    -0.07300
C488        C  0.15825945  0.30743475  0.87643457    -0.03400
C489        C  0.15635234  0.27199069  0.88159546    -0.08700
C490        C  0.14696963  0.26256334  0.89932469    -0.16300
H491        H  0.10282601  0.17684810  0.98545645     0.11800
H492        H  0.12488388  0.20117394  0.95662148     0.11100
H493        H  0.08906791  0.30362608  0.97266918     0.11000
H494        H  0.06671569  0.27933645  0.00148539     0.11600
H495        H  0.13519197  0.34387878  0.91714829     0.11600
H496        H  0.15182976  0.36067003  0.88599899     0.11600
H497        H  0.16136633  0.25144636  0.87180440     0.11700
H498        H  0.14540980  0.23511620  0.90291381     0.10600
C499        C  0.02747998  0.17029407  0.99432320    -0.03300
C500        C  0.02998340  0.13450742  0.99020694    -0.09000
C501        C  0.01751204  0.12180866  0.97350911    -0.16700
C502        C  0.50220326  0.14472193  0.96083486     0.25500
C503        C  0.49928733  0.18034200  0.96496743    -0.18300
C504        C  0.51169600  0.19304156  0.98163545    -0.07300
C505        C  0.48951330  0.13191043  0.94356439    -0.13700
C506        C  0.47882219  0.12252643  0.92886248    -0.13400
C507        C  0.46634525  0.11302006  0.91098134     0.25400
C508        C  0.46136726  0.13898038  0.89779789    -0.18800
C509        C  0.45005727  0.12998333  0.88029634    -0.07300
C510        C  0.44370501  0.09481149  0.87569119    -0.03400
C511        C  0.44858101  0.06886724  0.88902376    -0.08700
C512        C  0.45968755  0.07796237  0.90659800    -0.16300
H513        H  0.04204177  0.11655810  0.99981293     0.11800
H514        H  0.01990926  0.09419612  0.97046316     0.11100
H515        H  0.48742821  0.19830927  0.95529847     0.11000
H516        H  0.50908491  0.22064579  0.98463554     0.11600
H517        H  0.46658994  0.16616671  0.90099099     0.11600
H518        H  0.44716384  0.15044512  0.87020861     0.11600
H519        H  0.44384457  0.04161819  0.88582026     0.11700
H520        H  0.46341083  0.05764764  0.91670002     0.10600
C521        C  0.32133355  0.48561810  0.56175546    -0.03300
C522        C  0.31836669  0.02065654  0.56722998    -0.09000
C523        C  0.33185138  0.03122182  0.58410958    -0.16700
C524        C  0.34868924  0.50691623  0.59551296     0.25500
C525        C  0.35294527  0.47229599  0.58977279    -0.18300
C526        C  0.33945840  0.46171242  0.57295014    -0.07300
C527        C  0.35999370  0.01687131  0.61347255    -0.13700
C528        C  0.36824217  0.02399401  0.62887679    -0.13400
C529        C  0.37702307  0.03175888  0.64748787     0.25400
C530        C  0.38282154  0.00455630  0.65989673    -0.18800
C531        C  0.39089841  0.01207886  0.67805191    -0.07300
C532        C  0.39318771  0.04696130  0.68401930    -0.03400
C533        C  0.38731346  0.07409829  0.67142365    -0.08700
C534        C  0.37927393  0.06651558  0.65328643    -0.16300
H535        H  0.30441238  0.03939758  0.55877205     0.11800
H536        H  0.32839210  0.05807246  0.58844979     0.11100
H537        H  0.36593978  0.45329956  0.59848096     0.11000
H538        H  0.34220142  0.43463534  0.56886724     0.11600
H539        H  0.38096532  0.47754190  0.65555645     0.11600
H540        H  0.39492208  0.99064955  0.68746996     0.11600
H541        H  0.38940748  0.10120249  0.67554683     0.11700
H542        H  0.37484787  0.08775767  0.64378769     0.10600
C543        C  0.20633092  0.35722873  0.68549729    -0.03300
C544        C  0.20819842  0.39249380  0.68012196    -0.09000
C545        C  0.21603563  0.40132552  0.66212265    -0.16700
C546        C  0.22209608  0.37508991  0.64923590     0.25500
C547        C  0.22070736  0.33991962  0.65447555    -0.18300
C548        C  0.21290137  0.33101298  0.67249179    -0.07300
C549        C  0.22947401  0.38444409  0.63064791    -0.13700
C550        C  0.23569004  0.39366469  0.61528831    -0.13400
C551        C  0.24380639  0.40645311  0.59734460     0.25400
C552        C  0.25460652  0.38336888  0.58364202    -0.18800
C553        C  0.26456221  0.39625498  0.56656764    -0.07300
C554        C  0.26388034  0.43238620  0.56305659    -0.03400
C555        C  0.25154914  0.45520114  0.57665227    -0.08700
C556        C  0.24191245  0.44233853  0.59373205    -0.16300
H557        H  0.20377139  0.41325531  0.68986559     0.11800
H558        H  0.21723051  0.42864017  0.65823978     0.11100
H559        H  0.22534738  0.31939272  0.64461271     0.11000
H560        H  0.21126398  0.30363002  0.67615731     0.11600
H561        H  0.25603085  0.35552411  0.58626979     0.11600
H562        H  0.27384649  0.37816982  0.55629080     0.11600
H563        H  0.25007522  0.48307179  0.57415185     0.11700
H564        H  0.23342784  0.46043548  0.60419363     0.10600
C565        C  0.18404639  0.06277312  0.18123286    -0.03300
C566        C  0.19137447  0.08896112  0.16826902    -0.09000
C567        C  0.20246548  0.08005453  0.15064513    -0.16700
C568        C  0.20653358  0.04486200  0.14571797     0.25500
C569        C  0.19888887  0.01870843  0.15845799    -0.18300
C570        C  0.18773967  0.02752517  0.17602157    -0.07300
C571        C  0.21909070  0.03521814  0.12779283    -0.13700
C572        C  0.22968402  0.02500255  0.11318264    -0.13400
C573        C  0.24205857  0.01068457  0.09609289     0.25400
C574        C  0.21808894  0.49398556  0.08431276    -0.18800
C575        C  0.23013586  0.47886405  0.06809989    -0.07300
C576        C  0.26641884  0.47991675  0.06352032    -0.03400
C577        C  0.29031445  0.99705065  0.07527255    -0.08700
C578        C  0.27820838  0.01231221  0.09144884    -0.16300
H579        H  0.18865605  0.11632155  0.17178598     0.11800
H580        H  0.20819708  0.10061179  0.14093864     0.11100
H581        H  0.20203062  0.49139515  0.15489303     0.11000
H582        H  0.18306937  0.00669397  0.18570604     0.11600
H583        H  0.19010329  0.49237390  0.08773907     0.11600
H584        H  0.21126002  0.46577925  0.05926679     0.11600
H585        H  0.31834055  0.99850873  0.07192803     0.11700
H586        H  0.29708641  0.02510285  0.10040214     0.10600
C587        C  0.08012033  0.18538145  0.49698770    -0.03300
C588        C  0.07726428  0.14949777  0.49316020    -0.09000
C589        C  0.08716192  0.13662047  0.47607569    -0.16700
C590        C  0.10012726  0.15948730  0.46273735     0.25500
C591        C  0.10449733  0.19497689  0.46678499    -0.18300
C592        C  0.09485475  0.20780380  0.48384811    -0.07300
C593        C  0.10756732  0.14714124  0.44463973    -0.13700
C594        C  0.11323992  0.13871187  0.42910570    -0.13400
C595        C  0.12019376  0.13023379  0.41036011     0.25400
C596        C  0.15512147  0.13076745  0.40381798    -0.18800
C597        C  0.16204292  0.12289545  0.38560657    -0.07300
C598        C  0.13406497  0.11445696  0.37360818    -0.03400
C599        C  0.09896304  0.11419564  0.38029902    -0.08700
C600        C  0.09211036  0.12203267  0.39855282    -0.16300
H601        H  0.06605536  0.13176763  0.50311200     0.11800
H602        H  0.08380860  0.10906853  0.47311106     0.11100
H603        H  0.11464353  0.21288727  0.45661464     0.11000
H604        H  0.09780999  0.23546581  0.48662013     0.11600
H605        H  0.17706225  0.13712273  0.41282073     0.11600
H606        H  0.18940262  0.12276931  0.38101248     0.11600
H607        H  0.07678806  0.10822269  0.37139359     0.11700
H608        H  0.06492193  0.12177468  0.40343970     0.10600
C609        C  0.31447545  0.48796563  0.49442703    -0.03300
C610        C  0.33154982  0.46574227  0.48198799    -0.09000
C611        C  0.34477880  0.47897408  0.46560424    -0.16700
C612        C  0.34123943  0.51457882  0.46148286     0.25500
C613        C  0.32438868  0.03690732  0.47387251    -0.18300
C614        C  0.31120995  0.02370320  0.49030043    -0.07300
C615        C  0.35479272  0.02797660  0.44450426    -0.13700
C616        C  0.36605804  0.03779099  0.42999659    -0.13400
C617        C  0.37895468  0.04745394  0.41221677     0.25400
C618        C  0.38462494  0.08262598  0.40768300    -0.18800
C619        C  0.39572953  0.09176160  0.39011867    -0.07300
C620        C  0.40154802  0.06576277  0.37692925    -0.03400
C621        C  0.39629764  0.03049571  0.38172568    -0.08700
C622        C  0.38504340  0.02145883  0.39921036    -0.16300
H623        H  0.33470738  0.43818804  0.48500530     0.11800
H624        H  0.35779063  0.46143718  0.45615376     0.11100
H625        H  0.32142717  0.06447991  0.47083414     0.11000
H626        H  0.29814116  0.04124500  0.49972154     0.11600
H627        H  0.38003511  0.10299244  0.41763792     0.11600
H628        H  0.39960906  0.11909251  0.38679818     0.11600
H629        H  0.39986407  0.00992988  0.37177647     0.11700
H630        H  0.38058638  0.49418279  0.40250366     0.10600
C631        C  0.07703420  0.22529146  0.06322073    -0.03300
C632        C  0.09213103  0.20272558  0.07621547    -0.09000
C633        C  0.10139001  0.21520980  0.09345209    -0.16700
C634        C  0.09584323  0.25040628  0.09786154     0.25500
C635        C  0.08160830  0.27321059  0.08481533    -0.18300
C636        C  0.07236918  0.26074818  0.06754203    -0.07300
C637        C  0.10392037  0.26277672  0.11591556    -0.13700
C638        C  0.11025975  0.27197947  0.13128372    -0.13400
C639        C  0.11768553  0.28140443  0.14988612     0.25400
C640        C  0.12073506  0.31658767  0.15493998    -0.18800
C641        C  0.12820440  0.32549320  0.17302107    -0.07300
C642        C  0.13287125  0.29925851  0.18625296    -0.03400
C643        C  0.12954829  0.26402084  0.18104455    -0.08700
C644        C  0.12195999  0.25519325  0.16300278    -0.16300
H645        H  0.09605072  0.17531294  0.07310723     0.11800
H646        H  0.11239034  0.19731732  0.10341894     0.11100
H647        H  0.07713703  0.30047288  0.08808734     0.11000
H648        H  0.06055001  0.27846573  0.05774463     0.11600
H649        H  0.11752948  0.33710627  0.14490115     0.11600
H650        H  0.13100016  0.35282815  0.17659175     0.11600
H651        H  0.13260065  0.24329157  0.19096859     0.11700
H652        H  0.11951260  0.22788786  0.15927376     0.10600
C653        C  0.01998561  0.17239903  0.06186744    -0.03300
C654        C  0.52336814  0.13757576  0.06769298    -0.09000
C655        C  0.51030877  0.12741829  0.08474207    -0.16700
C656        C  0.49350903  0.15190903  0.09602498     0.25500
C657        C  0.48881806  0.18628805  0.08992772    -0.18300
C658        C  0.00182378  0.19643794  0.07293196    -0.07300
C659        C  0.48246339  0.14238199  0.11415096    -0.13700
C660        C  0.47414486  0.13554541  0.12961328    -0.13400
C661        C  0.46502993  0.12792069  0.14825961     0.25400
C662        C  0.45813563  0.15516177  0.16048531    -0.18800
C663        C  0.44984318  0.14777322  0.17864768    -0.07300
C664        C  0.44840844  0.11296871  0.18486085    -0.03400
C665        C  0.45519850  0.08579081  0.17242167    -0.08700
C666        C  0.46347498  0.09323725  0.15428604    -0.16300
H667        H  0.53734698  0.11869559  0.05937923     0.11800
H668        H  0.51408407  0.10073004  0.08930371     0.11100
H669        H  0.47582888  0.20546448  0.09848553     0.11000
H670        H  0.99871980  0.22335769  0.06861936     0.11600
H671        H  0.45936817  0.18213393  0.15600641     0.11600
H672        H  0.44510452  0.16929490  0.18789177     0.11600
H673        H  0.45372436  0.05870926  0.17666300     0.11700
H674        H  0.46866932  0.07191820  0.14496437     0.10600
C675        C  0.25977231  0.43136877  0.49545719    -0.03300
C676        C  0.24236662  0.45287947  0.48275182    -0.09000
C677        C  0.22936342  0.43881930  0.46649872    -0.16700
C678        C  0.23343412  0.40310952  0.46283271     0.25500
C679        C  0.25009383  0.38140572  0.47562151    -0.18300
C680        C  0.26308479  0.39543456  0.49189334    -0.07300
C681        C  0.22133679  0.38898380  0.44575419    -0.13700
C682        C  0.21197572  0.37788377  0.43115356    -0.13400
C683        C  0.20172663  0.36572767  0.41335728     0.25400
C684        C  0.16591126  0.36603918  0.40804358    -0.18800
C685        C  0.15621920  0.35583398  0.39042916    -0.07300
C686        C  0.18228227  0.34520794  0.37786764    -0.03400
C687        C  0.21818433  0.34453180  0.38348121    -0.08700
C688        C  0.22777835  0.35467340  0.40108200    -0.16300
H689        H  0.23916974  0.48057274  0.48536090     0.11800
H690        H  0.21645199  0.45584144  0.45672040     0.11100
H691        H  0.25340691  0.35374983  0.47292265     0.11000
H692        H  0.27642117  0.37844258  0.50153295     0.11600
H693        H  0.14551406  0.37456506  0.41744266     0.11600
H694        H  0.12837429  0.35641395  0.38661146     0.11600
H695        H  0.23906215  0.33724519  0.37409312     0.11700
H696        H  0.25560676  0.35451744  0.40500046     0.10600
C697        C  0.32041782  0.42248405  0.06387246    -0.03300
C698        C  0.35718533  0.42308960  0.06741839    -0.09000
C699        C  0.37058592  0.40987590  0.08382185    -0.16700
C700        C  0.34740191  0.39568920  0.09677558     0.25500
C701        C  0.31078077  0.39460932  0.09320158    -0.18300
C702        C  0.29736422  0.40783359  0.07683355    -0.07300
C703        C  0.36094965  0.38272342  0.11385833    -0.13700
C704        C  0.37099639  0.37238591  0.12851425    -0.13400
C705        C  0.38113823  0.36092203  0.14647880     0.25400
C706        C  0.35481943  0.35172516  0.15902818    -0.18800
C707        C  0.36418420  0.34226223  0.17676374    -0.07300
C708        C  0.40013487  0.34175892  0.18225821    -0.03400
C709        C  0.42648868  0.35047980  0.16944223    -0.08700
C710        C  0.41702177  0.36001311  0.15167794    -0.16300
H711        H  0.37539870  0.43424502  0.05759890     0.11800
H712        H  0.39896021  0.41089445  0.08644070     0.11100
H713        H  0.29258255  0.38364768  0.10309489     0.11000
H714        H  0.26898687  0.40665985  0.07426356     0.11600
H715        H  0.32695270  0.35252888  0.15520727     0.11600
H716        H  0.34312924  0.33650968  0.18634093     0.11600
H717        H  0.45437777  0.35017137  0.17318993     0.11700
H718        H  0.43764487  0.36709476  0.14207997     0.10600
C719        C  0.45608828  0.29788989  0.37233711    -0.03300
C720        C  0.45831974  0.26314433  0.37858068    -0.09000
C721        C  0.46776809  0.25597312  0.39664087    -0.16700
C722        C  0.47507277  0.28337059  0.40872988     0.25500
C723        C  0.47324149  0.31797887  0.40260169    -0.18300
C724        C  0.46382914  0.32520925  0.38456551    -0.07300
C725        C  0.48408722  0.27598986  0.42744151    -0.13700
C726        C  0.49158467  0.26923389  0.44304412    -0.13400
C727        C  0.50101840  0.25969114  0.46143361     0.25400
C728        C  0.01702037  0.28409121  0.47310650    -0.18800
C729        C  0.02817991  0.27397874  0.49053832    -0.07300
C730        C  0.02371482  0.23927592  0.49637544    -0.03400
C731        C  0.50641960  0.21531440  0.48486098    -0.08700
C732        C  0.49527151  0.22543719  0.46748672    -0.16300
H733        H  0.45291479  0.24152323  0.36948103     0.11800
H734        H  0.46921920  0.22905647  0.40119437     0.11100
H735        H  0.47875443  0.33941928  0.41181354     0.11000
H736        H  0.46183263  0.35224838  0.38030443     0.11600
H737        H  0.02158678  0.31068400  0.46859127     0.11600
H738        H  0.04156450  0.29278782  0.49918208     0.11600
H739        H  0.50255845  0.18847704  0.48914767     0.11700
H740        H  0.48285611  0.20633783  0.45863135     0.10600
C741        C  0.44477823  0.80582934  0.35334135     0.03200
C742        C  0.41665700  0.78721588  0.34518522    -0.12900
C743        C  0.40418769  0.79629807  0.32776856     0.00700
C744        C  0.42031922  0.82410058  0.31840587    -0.11400
C745        C  0.44864498  0.84273890  0.32622723     0.03200
C746        C  0.46089914  0.83322927  0.34360848    -0.10900
H747        H  0.40360291  0.76657384  0.35272081     0.08800
H748        H  0.41069632  0.83122847  0.30501959     0.06300
H749        H  0.48282502  0.84746405  0.34969476     0.06200
C750        C  0.40952232  0.83469255  0.20160784     0.03200
C751        C  0.43516956  0.85542326  0.21052587    -0.12900
C752        C  0.43957922  0.85331780  0.22944665     0.00700
C753        C  0.41865171  0.82988628  0.23947285    -0.11400
C754        C  0.39416712  0.80786111  0.23072394     0.03200
C755        C  0.39009163  0.81000964  0.21178303    -0.10900
H756        H  0.44971323  0.87514423  0.20300874     0.08800
H757        H  0.42127278  0.82900844  0.25415362     0.06300
H758        H  0.37041491  0.79373703  0.20509779     0.06200
C759        C  0.17269070  0.83693014  0.35866996     0.03200
C760        C  0.14767160  0.85757811  0.34920961    -0.12900
C761        C  0.14296194  0.85374188  0.33035535     0.00700
C762        C  0.16334726  0.82887462  0.32095127    -0.11400
C763        C  0.18689912  0.80671533  0.33034305     0.03200
C764        C  0.19107185  0.81057566  0.34919114    -0.10900
H765        H  0.13365224  0.87829632  0.35622785     0.08800
H766        H  0.16076482  0.82665496  0.30630814     0.06300
H767        H  0.21007614  0.79422999  0.35632498     0.06200
C768        C  0.43979868  0.60488828  0.20418746     0.03200
C769        C  0.41298055  0.62334762  0.21335773    -0.12900
C770        C  0.40356259  0.61466329  0.23131120     0.00700
C771        C  0.42140440  0.58709932  0.24015400    -0.11400
C772        C  0.44880725  0.56879613  0.23130792     0.03200
C773        C  0.45783816  0.57800777  0.21339120    -0.10900
H774        H  0.39861079  0.64369242  0.20622002     0.08800
H775        H  0.41421203  0.58012080  0.25395151     0.06300
H776        H  0.47880958  0.56404807  0.20643317     0.06200
C777        C  0.46484845  0.87279424  0.31662247     0.42600
N778        N  0.99847069  0.91687976  0.31118180     0.01400
C779        C  0.00008399  0.52216259  0.23430473    -0.06400
H780        H  0.01094249  0.88953793  0.22055835     0.06900
C781        C  0.12836203  0.89165506  0.25835542    -0.06800
Co782      Co  0.47566884  0.95665440  0.27792785     0.74200
N783        N  0.00289219  0.91953819  0.24512135    -0.26000
Co784      Co  0.04354144  0.95686066  0.24600842     0.74100
C785        C  0.11649664  0.87488367  0.24153945     0.42700
N786        N  0.10335026  0.91766801  0.30134050     0.01100
N787        N  0.08234377  0.91820114  0.24737781     0.01200
N788        N  0.45581040  0.52182971  0.25515090    -0.46800
H789        H  0.42986476  0.88451631  0.29146975     0.06900
N790        N  0.97759922  0.91914814  0.25753671     0.01500
N791        N  0.08430157  0.99415066  0.24716977     0.01200
C792        C  0.12308550  0.53310795  0.24010630     0.42800
N793        N  0.07803472  0.91778520  0.31374968    -0.25400
C794        C  0.45119332  0.51952200  0.30128285    -0.06300
N795        N  0.99338203  0.89078957  0.32272286    -0.46500
N796        N  0.09338025  0.51661502  0.23419629    -0.46700
C797        C  0.46149339  0.53462457  0.31870403     0.42600
N798        N  0.97863457  0.99585733  0.25794359     0.01400
N799        N  0.07661113  0.99351506  0.31374041    -0.25400
N800        N  0.47478632  0.91746486  0.29788022    -0.25900
N801        N  0.10241876  0.99427478  0.30158425     0.01100
H802        H  0.06461046  0.52504506  0.33720524     0.07000
H803        H  0.15553752  0.52252703  0.26610231     0.07000
N804        N  0.00463899  0.99554060  0.24588420    -0.26000
N805        N  0.10570975  0.91814473  0.26083098    -0.25600
N806        N  0.99749296  0.99308903  0.31212300     0.01400
C807        C  0.46279790  0.87830807  0.23907172     0.42800
C808        C  0.08584844  0.89354550  0.32638874    -0.06800
N809        N  0.10700740  0.99412693  0.26089918    -0.25600
H810        H  0.15082344  0.88572890  0.26704182     0.07000
N811        N  0.45309631  0.89501357  0.25441109    -0.46800
H812        H  0.07093578  0.88871911  0.33870418     0.07000
C813        C  0.11369597  0.53714114  0.31949498     0.42700
C814        C  0.45235233  0.89048588  0.30013263    -0.06300
Co815      Co  0.03753057  0.95524335  0.31306201     0.73800
N816        N  0.12849114  0.89422638  0.30474309    -0.46500
C817        C  0.46771032  0.53963509  0.24045177     0.42900
N818        N  0.99008714  0.51663923  0.32480701    -0.46500
Co819      Co  0.10524766  0.95612613  0.28119596     0.73900
C820        C  0.13215000  0.51822314  0.25778942    -0.06800
C821        C  0.99564731  0.89475791  0.23270071    -0.06400
N822        N  0.47473233  0.99388710  0.29844002    -0.25900
N823        N  0.08795902  0.89287755  0.23542392    -0.46700
H824        H  0.01713678  0.52800588  0.22287477     0.07000
C825        C  0.08145018  0.51954781  0.32564922    -0.06800
Cl826      Cl  0.04052067  0.95624114  0.27954344    -0.49800
C827        C  0.11915274  0.87768108  0.32023375     0.42700
H828        H  0.42840919  0.52531059  0.29277686     0.06900
N829        N  0.12528226  0.52003886  0.30454149    -0.46500
C830        C  0.14190047  0.80844640  0.20534258     0.03200
C831        C  0.12445498  0.83621333  0.21420781    -0.12900
C832        C  0.13348993  0.84513450  0.23216310     0.00700
C833        C  0.15984229  0.82598338  0.24122043    -0.11400
C834        C  0.17791235  0.79870159  0.23257745     0.03200
C835        C  0.16861482  0.78977487  0.21468268    -0.10900
H836        H  0.10392127  0.85080469  0.20714719     0.08800
H837        H  0.16638151  0.83241638  0.25512523     0.06300
H838        H  0.18283823  0.76896969  0.20783797     0.06200
C839        C  0.41078093  0.57507673  0.35788345     0.03200
C840        C  0.43589995  0.55501417  0.34824154    -0.12900
C841        C  0.43998696  0.55932706  0.32942281     0.00700
C842        C  0.41965161  0.58451494  0.32032688    -0.11400
C843        C  0.39511133  0.60527626  0.32971435     0.03200
C844        C  0.39118510  0.60097208  0.34857605    -0.10900
H845        H  0.45068195  0.53463633  0.35518283     0.08800
H846        H  0.42218053  0.58724056  0.30571031     0.06300
H847        H  0.37082124  0.61561927  0.35567930     0.06200
C848        C  0.14174239  0.60505925  0.35436512     0.03200
C849        C  0.16853709  0.62262625  0.34463384    -0.12900
C850        C  0.17774178  0.61216521  0.32695344     0.00700
C851        C  0.15941327  0.58428472  0.31882951    -0.11400
C852        C  0.13217369  0.56688303  0.32815954     0.03200
C853        C  0.12343772  0.57740125  0.34590159    -0.10900
H854        H  0.18253291  0.64425640  0.35091625     0.08800
H855        H  0.16619700  0.57608688  0.30518469     0.06300
H856        H  0.10332215  0.56323081  0.35340999     0.06200
C857        C  0.17501720  0.57185309  0.20044794     0.03200
C858        C  0.15016645  0.55169902  0.21034910    -0.12900
C859        C  0.14593852  0.55658451  0.22918218     0.00700
C860        C  0.16634040  0.58208660  0.23806082    -0.11400
C861        C  0.18997660  0.60339882  0.22836683     0.03200
C862        C  0.19396390  0.59848956  0.20955002    -0.10900
H863        H  0.13530756  0.53118234  0.20358269     0.08800
H864        H  0.16396082  0.58528859  0.25265997     0.06300
H865        H  0.21378655  0.61361186  0.20230999     0.06200
C866        C  0.37026873  0.78551174  0.24160344     0.42600
N867        N  0.32897292  0.74869475  0.24794337     0.01400
C868        C  0.22632858  0.74976976  0.32659494    -0.06400
H869        H  0.36202959  0.72949240  0.33742864     0.06900
C870        C  0.35489250  0.61773136  0.30162543    -0.06800
Co871      Co  0.29022657  0.76916255  0.28172879     0.74200
N872        N  0.32880718  0.74120457  0.31426155    -0.26000
Co873      Co  0.28982844  0.70255092  0.31359840     0.74100
C874        C  0.37027976  0.62720888  0.31913688     0.42700
N875        N  0.33072874  0.64520791  0.25831944     0.01100
N876        N  0.32845223  0.66324898  0.31260401     0.01200
N877        N  0.22711415  0.79149153  0.30482160    -0.46800
H878        H  0.35916880  0.81749237  0.26746496     0.06900
N879        N  0.32913487  0.76656480  0.30207346     0.01500
N880        N  0.25097086  0.66390843  0.31168513     0.01200
C881        C  0.20717555  0.62964364  0.31723484     0.42800
N882        N  0.33027241  0.67070038  0.24620015    -0.25400
C883        C  0.22463153  0.79219135  0.25900371    -0.06300
N884        N  0.35287735  0.75691875  0.23539712    -0.46500
N885        N  0.22498164  0.65793452  0.32341767    -0.46700
C886        C  0.20734770  0.78088336  0.24219221     0.42600
N887        N  0.25118983  0.76696872  0.30168298     0.01400
N888        N  0.25318869  0.66868531  0.24533040    -0.25400
N889        N  0.32892346  0.77090023  0.26166315    -0.25900
N890        N  0.25286070  0.64387034  0.25780745     0.01100
H891        H  0.22463388  0.67502709  0.21996670     0.07000
H892        H  0.21929128  0.59608716  0.29189668     0.07000
N893        N  0.25136218  0.74218448  0.31416844    -0.26000
N894        N  0.32910471  0.64117865  0.29882174    -0.25600
N895        N  0.25137032  0.74698813  0.24791630     0.01400
C896        C  0.37352832  0.77781749  0.31953996     0.42800
C897        C  0.35690510  0.66583652  0.23441160    -0.06800
N898        N  0.25161845  0.64097424  0.29826212    -0.25600
H899        H  0.36039470  0.59538371  0.29307141     0.07000
N900        N  0.35543622  0.78905777  0.30474617    -0.46800
H901        H  0.36253817  0.68231208  0.22281359     0.07000
C902        C  0.21332893  0.62762148  0.23848377     0.42700
C903        C  0.35433722  0.79488203  0.25897836    -0.06300
Co904      Co  0.29088604  0.70888012  0.24646183     0.73800
N905        N  0.35673286  0.62245023  0.25538608    -0.46500
C906        C  0.20998132  0.78235128  0.32018767     0.42900
N907        N  0.22551727  0.75284163  0.23598682    -0.46500
Co908      Co  0.29111143  0.64217751  0.27830071     0.73900
C909        C  0.22484145  0.61827039  0.30056067    -0.06800
C910        C  0.35583601  0.74606780  0.32593051    -0.06400
N911        N  0.25150693  0.76978525  0.26139721    -0.25900
N912        N  0.35225427  0.65537010  0.32534349    -0.46700
H913        H  0.22127813  0.73517096  0.33892721     0.07000
C914        C  0.22919649  0.66056100  0.23239965    -0.06800
Cl915      Cl  0.29048407  0.70567570  0.28002091    -0.49800
C916        C  0.37448559  0.63382568  0.24052881     0.42700
H917        H  0.21886795  0.81420367  0.26772754     0.06900
N918        N  0.22957403  0.61884367  0.25420350    -0.46500
C919        C  0.30037042  0.97394387  0.51180722     0.02400
C920        C  0.27515650  0.94639883  0.51229776     0.02300
C921        C  0.26400065  0.93305671  0.52914261    -0.18200
C922        C  0.27748045  0.94643887  0.54552639     0.02400
C923        C  0.30345518  0.97328606  0.54498323     0.02300
C924        C  0.31395049  0.98725216  0.52819361    -0.18200
H925        H  0.33401421  0.00763693  0.52784857     0.04400
H926        H  0.24411599  0.91250836  0.52949592     0.04400
C927        C  0.06392758  0.71130169  0.04562342     0.02400
C928        C  0.03786827  0.68458841  0.04501690     0.02300
C929        C  0.02753098  0.67071853  0.02815084    -0.18200
C930        C  0.04151427  0.68397715  0.01181203     0.02400
C931        C  0.06707143  0.71127896  0.01240303     0.02300
C932        C  0.07790026  0.72459234  0.02933675    -0.18200
H933        H  0.09782213  0.74509225  0.02986231     0.04400
H934        H  0.50731759  0.65048782  0.02769763     0.04400
C935        C  0.03971767  0.72713834  0.51377233     0.02400
C936        C  0.06534193  0.69995649  0.51409446     0.02300
C937        C  0.07741658  0.68694985  0.53086347    -0.18200
C938        C  0.06531128  0.70108331  0.54735940     0.02400
C939        C  0.04045208  0.72895290  0.54700315     0.02300
C940        C  0.02817751  0.74182388  0.53021494    -0.18200
H941        H  0.50844158  0.76250942  0.52996711     0.04400
H942        H  0.09699477  0.66612173  0.53107434     0.04400
C943        C  0.30608153  0.93698569  0.04661997     0.02400
C944        C  0.27927636  0.96309829  0.04648715     0.02300
C945        C  0.26488071  0.97401687  0.02977273    -0.18200
C946        C  0.27714050  0.96014859  0.01324994     0.02400
C947        C  0.30507656  0.93525800  0.01332181     0.02300
C948        C  0.31882039  0.92362532  0.03003132    -0.18200
H949        H  0.33968647  0.90404137  0.03012527     0.04400
H950        H  0.24404413  0.49363388  0.02960572     0.04400
C951        C  0.39905886  0.84988830  0.85385315     0.03200
C952        C  0.42605675  0.86926414  0.84522017    -0.12900
C953        C  0.43638972  0.86161095  0.82731301     0.00700
C954        C  0.41931694  0.83444737  0.81790504    -0.11400
C955        C  0.39221849  0.81487159  0.82616420     0.03200
C956        C  0.38203550  0.82291761  0.84408800    -0.10900
H957        H  0.43997487  0.88943375  0.85271308     0.08800
H958        H  0.42729345  0.82853982  0.80410687     0.06300
H959        H  0.36100476  0.80799097  0.85049308     0.06200
C960        C  0.43400823  0.58542571  0.85673335     0.03200
C961        C  0.40868950  0.60545661  0.84716003    -0.12900
C962        C  0.40381854  0.60068318  0.82841834     0.00700
C963        C  0.42377120  0.57530801  0.81932004    -0.11400
C964        C  0.44844115  0.55454183  0.82867886     0.03200
C965        C  0.45308307  0.55920390  0.84747492    -0.10900
H966        H  0.39426381  0.62603871  0.85408825     0.08800
H967        H  0.42069579  0.57229922  0.80473936     0.06300
H968        H  0.47351766  0.54449523  0.85455210     0.06200
C969        C  0.20258267  0.54899095  0.85249681     0.03200
C970        C  0.22087197  0.57667442  0.84408137    -0.12900
C971        C  0.21130184  0.58799265  0.82656625     0.00700
C972        C  0.18352382  0.57101895  0.81734965    -0.11400
C973        C  0.16525991  0.54305553  0.82545303     0.03200
C974        C  0.17503174  0.53211609  0.84297872    -0.10900
H975        H  0.24219984  0.58966851  0.85132833     0.08800
H976        H  0.17615413  0.57973545  0.80385191     0.06300
H977        H  0.16027715  0.51126017  0.84949744     0.06200
C978        C  0.16698581  0.81700666  0.85729226     0.03200
C979        C  0.14755323  0.84315610  0.84810181    -0.12900
C980        C  0.15184528  0.84826883  0.82929445     0.00700
C981        C  0.17608030  0.82727665  0.81969553    -0.11400
C982        C  0.19714192  0.80255500  0.82885488     0.03200
C983        C  0.19270444  0.79780716  0.84762783    -0.10900
H984        H  0.12731186  0.85782311  0.85527642     0.08800
H985        H  0.17868214  0.83030517  0.80509547     0.06300
H986        H  0.20818090  0.77794342  0.85457253     0.06200
C987        C  0.16808934  0.58287711  0.70001987     0.03200
C988        C  0.19334719  0.60267099  0.70981116    -0.12900
C989        C  0.19753871  0.59788116  0.72865600     0.00700
C990        C  0.17702340  0.57249074  0.73756307    -0.11400
C991        C  0.15312460  0.55137198  0.72786413     0.03200
C992        C  0.14900727  0.55639951  0.70908459    -0.10900
H993        H  0.20756817  0.62366699  0.70309873     0.08800
H994        H  0.17931417  0.56941951  0.75218044     0.06300
H995        H  0.12936595  0.54117184  0.70172971     0.06200
C996        C  0.40202192  0.55514432  0.70324751     0.03200
C997        C  0.38420887  0.58209622  0.71238192    -0.12900
C998        C  0.39346389  0.59128018  0.73027635     0.00700
C999        C  0.42098326  0.57298738  0.73911859    -0.11400
C1000       C  0.43854741  0.54531219  0.73028316     0.03200
C1001       C  0.42887057  0.53664573  0.71237290    -0.10900
H1002       H  0.36321838  0.59607019  0.70538307     0.08800
H1003       H  0.42833859  0.57992354  0.75291141     0.06300
H1004       H  0.44300543  0.51622053  0.70522232     0.06200
C1005       C  0.37540687  0.78539396  0.81628425     0.42600
N1006       N  0.34180602  0.74142201  0.81045535     0.01400
C1007       C  0.34154005  0.63693493  0.73332134    -0.06400
H1008       H  0.32702660  0.76930055  0.71982871     0.06900
C1009       C  0.21056328  0.76413520  0.75739711    -0.06800
Co1010     Co  0.36490737  0.70255740  0.77702132     0.74200
N1011       N  0.33628035  0.73924868  0.74429720    -0.26000
Co1012     Co  0.29673541  0.70089349  0.74511647     0.74100
C1013       C  0.22207049  0.78122449  0.74062274     0.42700
N1014       N  0.23692329  0.73865876  0.80024945     0.01100
N1015       N  0.25704406  0.73853030  0.74645483     0.01200
N1016       N  0.38607756  0.63806681  0.75413190    -0.46800
H1017       H  0.41006050  0.77462474  0.79098137     0.06900
N1018       N  0.36166802  0.74021767  0.75671364     0.01500
N1019       N  0.25707790  0.66250465  0.74632334     0.01200
C1020       C  0.21985270  0.62190963  0.73954519     0.42800
N1021       N  0.26238865  0.73906666  0.81263401    -0.25400
C1022       C  0.39129937  0.64024079  0.80030998    -0.06300
N1023       N  0.34707636  0.76701884  0.82229408    -0.46500
N1024       N  0.24883475  0.63938627  0.73351996    -0.46700
C1025       C  0.38163008  0.62491099  0.81774736     0.42600
N1026       N  0.36270148  0.66350895  0.75697461     0.01400
N1027       N  0.26517147  0.66308606  0.81270083    -0.25400
N1028       N  0.36524416  0.74146985  0.79709614    -0.25900
N1029       N  0.23927513  0.66199168  0.80054594     0.01100
H1030       H  0.27825899  0.63102771  0.83587922     0.07000
H1031       H  0.18716766  0.63187465  0.76545017     0.07000
N1032       N  0.33655242  0.66331761  0.74494260    -0.26000
N1033       N  0.23376424  0.73806473  0.75987464    -0.25600
N1034       N  0.34433761  0.66533524  0.81115509     0.01400
C1035       C  0.37497694  0.78173054  0.73836927     0.42800
C1036       C  0.25476984  0.76386616  0.82494460    -0.06800
N1037       N  0.23445441  0.66202028  0.76002503    -0.25600
H1038       H  0.18808216  0.76966836  0.76608291     0.07000
N1039       N  0.38538110  0.76509393  0.75364599    -0.46800
H1040       H  0.26997559  0.76938671  0.83711835     0.07000
C1041       C  0.22930271  0.61821697  0.81807367     0.42700
C1042       C  0.38757854  0.76843967  0.79955877    -0.06300
Co1043     Co  0.30347185  0.70227602  0.81212854     0.73800
N1044       N  0.21181497  0.76221864  0.80337847    -0.46500
C1045       C  0.37436162  0.62016716  0.73941329     0.42900
N1046       N  0.35258032  0.64204165  0.82386058    -0.46500
Co1047     Co  0.23542618  0.70011368  0.78022481     0.73900
C1048       C  0.21024970  0.63693691  0.75708224    -0.06800
C1049       C  0.34260944  0.76438648  0.73195083    -0.06400
N1050       N  0.36698133  0.66518417  0.79746414    -0.25900
N1051       N  0.25092258  0.76382347  0.73453678    -0.46700
H1052       H  0.32442794  0.63079391  0.72192016     0.07000
C1053       C  0.26112355  0.63651275  0.82439271    -0.06800
Cl1054     Cl  0.30013490  0.70143412  0.77862098    -0.49800
C1055       C  0.22140521  0.77947528  0.81862011     0.42700
H1056       H  0.41419755  0.63513844  0.79182293     0.06900
N1057       N  0.21715754  0.63554053  0.80327928    -0.46500
C1058       C  0.42787064  0.82476678  0.70077472     0.03200
C1059       C  0.44763974  0.84937234  0.71083940    -0.12900
C1060       C  0.44337422  0.85207557  0.72973567     0.00700
C1061       C  0.41868277  0.83045130  0.73855166    -0.11400
C1062       C  0.39772712  0.80686302  0.72863243     0.03200
C1063       C  0.40196578  0.80451582  0.70973696    -0.10900
H1064       H  0.46835738  0.86443238  0.70424642     0.08800
H1065       H  0.41611601  0.83157180  0.75322395     0.06300
H1066       H  0.38658164  0.78544108  0.70218013     0.06200
C1067       C  0.19685375  0.84787342  0.70449585     0.03200
C1068       C  0.16959105  0.86605059  0.71360554    -0.12900
C1069       C  0.15985255  0.85673524  0.73137306     0.00700
C1070       C  0.17777287  0.82934453  0.74007061    -0.11400
C1071       C  0.20476198  0.81081319  0.73124746     0.03200
C1072       C  0.21440748  0.82028404  0.71348452    -0.10900
H1073       H  0.15532984  0.88680980  0.70669824     0.08800
H1074       H  0.17076107  0.82245766  0.75384548     0.06300
H1075       H  0.23552137  0.80619880  0.70665762     0.06200
C1076       C  0.46768118  0.87406314  0.74058522     0.42600
N1077       N  0.00995485  0.90985755  0.74684495     0.01400
C1078       C  0.11306415  0.90577310  0.82565446    -0.06400
H1079       H  0.47874638  0.92858100  0.83658694     0.06900
C1080       C  0.48784926  0.54113415  0.80056041    -0.06800
Co1081     Co  0.04863839  0.88826382  0.78059058     0.74200
N1082       N  0.01105179  0.91688057  0.81315857    -0.26000
Co1083     Co  0.05091022  0.95470890  0.81250255     0.74100
C1084       C  0.47254310  0.53203546  0.81810136     0.42700
N1085       N  0.01091129  0.51324134  0.75725515     0.01100
N1086       N  0.01321484  0.49490065  0.81150712     0.01200
N1087       N  0.11131156  0.86423190  0.80381575    -0.46800
H1088       H  0.47838000  0.84175562  0.76641950     0.06900
N1089       N  0.01005233  0.89164034  0.80092842     0.01500
N1090       N  0.09066724  0.49256774  0.81055838     0.01200
C1091       C  0.13515864  0.52613486  0.81595373     0.42800
N1092       N  0.01069270  0.48781512  0.74512249    -0.25400
C1093       C  0.11317582  0.86362279  0.75769892    -0.06300
N1094       N  0.48567584  0.90223775  0.73433080    -0.46500
N1095       N  0.11698944  0.49811241  0.82222022    -0.46700
C1096       C  0.13041266  0.87459852  0.74085013     0.42600
N1097       N  0.08793053  0.88941049  0.80059165     0.01400
N1098       N  0.08782328  0.48788419  0.74434517    -0.25400
N1099       N  0.00966279  0.88761095  0.76056211    -0.25900
N1100       N  0.08874978  0.51262290  0.75683476     0.01100
H1101       H  0.11678105  0.48065177  0.71924390     0.07000
H1102       H  0.12316812  0.55985583  0.79063323     0.07000
N1103       N  0.08837918  0.91412738  0.81310509    -0.26000
N1104       N  0.01291986  0.51700981  0.79772048    -0.25600
N1105       N  0.08749117  0.90960118  0.74673462     0.01400
C1106       C  0.46607756  0.88067195  0.81860642     0.42800
C1107       C  0.48413898  0.49333910  0.73332327    -0.06800
N1108       N  0.09023506  0.51553186  0.79713497    -0.25600
H1109       H  0.48286415  0.56367616  0.79203231     0.07000
N1110       N  0.48361873  0.86938672  0.80370978    -0.46800
H1111       H  0.47803655  0.47701829  0.72172589     0.07000
C1112       C  0.12928745  0.52759718  0.73789257     0.42700
C1113       C  0.48362560  0.86427397  0.75792732    -0.06300
Co1114     Co  0.04904105  0.94869513  0.74536414     0.73800
N1115       N  0.48545434  0.53662236  0.75432978    -0.46500
C1116       C  0.12851349  0.87280910  0.81929631     0.42900
N1117       N  0.11294324  0.90317229  0.73473542    -0.46500
Co1118     Co  0.05065168  0.51521125  0.77722731     0.73900
C1119       C  0.11740520  0.53778835  0.79934066    -0.06800
C1120       C  0.48429426  0.91219455  0.82495587    -0.06400
N1121       N  0.08700373  0.88674624  0.76020065    -0.25900
N1122       N  0.48986929  0.50339675  0.82429342    -0.46700
H1123       H  0.11841419  0.92013337  0.83803085     0.07000
C1124       C  0.11236721  0.49526421  0.73162405    -0.06800
Cl1125     Cl  0.04984479  0.95172032  0.77892328    -0.49800
C1126       C  0.46738651  0.52570585  0.73945577     0.42700
H1127       H  0.11851957  0.84141285  0.76638571     0.06900
N1128       N  0.11297306  0.53685876  0.75345945    -0.46500
C1129       C  0.21073005  0.53894191  0.87157279    -0.03300
C1130       C  0.21694621  0.56481099  0.88481364    -0.09000
C1131       C  0.22234096  0.55554844  0.90300023    -0.16700
C1132       C  0.22158995  0.52036487  0.90820669     0.25500
C1133       C  0.21610486  0.49437972  0.89509961    -0.18300
C1134       C  0.21071409  0.50357762  0.87689277    -0.07300
C1135       C  0.22631675  0.51097602  0.92700505    -0.13700
C1136       C  0.23098082  0.50303866  0.94269597    -0.13400
C1137       C  0.23855554  0.49302158  0.96116087     0.25400
C1138       C  0.23527592  0.95799774  0.96643375    -0.18800
C1139       C  0.24609826  0.94755814  0.98379617    -0.07300
C1140       C  0.26067279  0.97201292  0.99598186    -0.03400
C1141       C  0.26224951  0.50739734  0.99094594    -0.08700
C1142       C  0.25134189  0.51782882  0.97357070    -0.16300
H1143       H  0.21663714  0.59226846  0.88120925     0.11800
H1144       H  0.22663600  0.57585958  0.91303685     0.11100
H1145       H  0.21573482  0.46703666  0.89897073     0.11000
H1146       H  0.20645282  0.48305829  0.86698039     0.11600
H1147       H  0.22535659  0.93860385  0.95695440     0.11600
H1148       H  0.24437722  0.92019545  0.98750924     0.11600
H1149       H  0.27344648  0.52660361  0.00014617     0.11700
H1150       H  0.25395958  0.54500559  0.96961899     0.10600
C1151       C  0.38959020  0.85717214  0.87320406    -0.03300
C1152       C  0.38205804  0.82963863  0.88535517    -0.09000
C1153       C  0.37382697  0.83652770  0.90359283    -0.16700
C1154       C  0.37302317  0.87100699  0.91000687     0.25500
C1155       C  0.38055163  0.89853209  0.89804402    -0.18300
C1156       C  0.38872973  0.89172511  0.87981756    -0.07300
C1157       C  0.36393121  0.87840769  0.92872751    -0.13700
C1158       C  0.35572045  0.88629390  0.94409683    -0.13400
C1159       C  0.34507879  0.89797202  0.96199434     0.25400
C1160       C  0.34696866  0.93356837  0.96637047    -0.18800
C1161       C  0.33506926  0.94547211  0.98328789    -0.07300
C1162       C  0.32079456  0.92197863  0.99606085    -0.03400
C1163       C  0.31986354  0.88614370  0.99183075    -0.08700
C1164       C  0.33182153  0.87423097  0.97486136    -0.16300
H1165       H  0.38306854  0.80271231  0.88084625     0.11800
H1166       H  0.36813196  0.81494902  0.91268709     0.11100
H1167       H  0.37990581  0.92534728  0.90278415     0.11000
H1168       H  0.39396201  0.91358349  0.87084704     0.11600
H1169       H  0.35717015  0.95223503  0.95659122     0.11600
H1170       H  0.33631881  0.97316633  0.98630002     0.11600
H1171       H  0.30888505  0.86759329  0.00143853     0.11700
H1172       H  0.33016977  0.84662663  0.97166928     0.10600
C1173       C  0.15817392  0.59296295  0.68112211    -0.03300
C1174       C  0.12203356  0.59648259  0.67633719    -0.09000
C1175       C  0.11220956  0.60874171  0.65912780    -0.16700
C1176       C  0.13827380  0.61758916  0.64636506     0.25500
C1177       C  0.17434517  0.61350396  0.65083878    -0.18300
C1178       C  0.18426183  0.60139381  0.66813647    -0.07300
C1179       C  0.12775628  0.63176529  0.62894600    -0.13700
C1180       C  0.11767955  0.64399731  0.61466854    -0.13400
C1181       C  0.10478629  0.65845367  0.59773369     0.25400
C1182       C  0.10850994  0.69423756  0.59405802    -0.18800
C1183       C  0.09594321  0.70815980  0.57763060    -0.07300
C1184       C  0.07929781  0.68646811  0.56471869    -0.03400
C1185       C  0.07577910  0.65060110  0.56846668    -0.08700
C1186       C  0.08833006  0.63672285  0.58489148    -0.16300
H1187       H  0.10131542  0.59084426  0.68612904     0.11800
H1188       H  0.08423720  0.61189118  0.65588860     0.11100
H1189       H  0.19479507  0.62018096  0.64106861     0.11000
H1190       H  0.21225727  0.59885295  0.67142585     0.11600
H1191       H  0.12115915  0.71135712  0.60386996     0.11600
H1192       H  0.09924021  0.73582786  0.57496737     0.11600
H1193       H  0.06291295  0.63344275  0.55875211     0.11700
H1194       H  0.08515980  0.60903980  0.58758271     0.10600
C1195       C  0.43745078  0.81721714  0.68155626    -0.03300
C1196       C  0.43939017  0.78237524  0.67543861    -0.09000
C1197       C  0.45129710  0.77478065  0.65790261    -0.16700
C1198       C  0.46154259  0.80179830  0.64620288     0.25500
C1199       C  0.45926265  0.83658114  0.65201721    -0.18300
C1200       C  0.44727212  0.84427527  0.66958048    -0.07300
C1201       C  0.47501086  0.79346698  0.62840896    -0.13700
C1202       C  0.48627230  0.78432138  0.61382081    -0.13400
C1203       C  0.99928181  0.77088771  0.59679986     0.25400
C1204       C  0.01717902  0.79275480  0.58455604    -0.18800
C1205       C  0.03008585  0.77925017  0.56815270    -0.07300
C1206       C  0.02547481  0.74369985  0.56396474    -0.03400
C1207       C  0.00710738  0.72204698  0.57619557    -0.08700
C1208       C  0.49417316  0.73556330  0.59253672    -0.16300
H1209       H  0.43284922  0.76084938  0.68440200     0.11800
H1210       H  0.45309071  0.74775326  0.65357577     0.11100
H1211       H  0.46708568  0.85771165  0.64305508     0.11000
H1212       H  0.44590706  0.87134181  0.67383834     0.11600
H1213       H  0.02130727  0.82012165  0.58772666     0.11600
H1214       H  0.04422983  0.79630420  0.55888189     0.11600
H1215       H  0.50302482  0.69463816  0.57311937     0.11700
H1216       H  0.48031909  0.71842485  0.60188840     0.10600
C1217       C  0.08283753  0.72623023  0.99556059    -0.03300
C1218       C  0.09982136  0.70455719  0.98281258    -0.09000
C1219       C  0.11242843  0.71839803  0.96641577    -0.16700
C1220       C  0.10843498  0.75409235  0.96258971     0.25500
C1221       C  0.09234771  0.77598576  0.97544623    -0.18300
C1222       C  0.07975305  0.76217241  0.99186653    -0.07300
C1223       C  0.11993268  0.76790209  0.94527107    -0.13700
C1224       C  0.12896550  0.77812332  0.93041327    -0.13400
C1225       C  0.13927270  0.78830857  0.91223985     0.25400
C1226       C  0.14112212  0.82367324  0.90729070    -0.18800
C1227       C  0.15048481  0.83319582  0.88950464    -0.07300
C1228       C  0.15825923  0.80743419  0.87643431    -0.03400
C1229       C  0.15635258  0.77198997  0.88159505    -0.08700
C1230       C  0.14697002  0.76256262  0.89932430    -0.16300
H1231       H  0.10282547  0.67684681  0.98545626     0.11800
H1232       H  0.12488312  0.70117250  0.95662125     0.11100
H1233       H  0.08906980  0.80362484  0.97266916     0.11000
H1234       H  0.06671761  0.77933610  0.00148552     0.11600
H1235       H  0.13519138  0.84387760  0.91714798     0.11600
H1236       H  0.15182894  0.86066971  0.88599872     0.11600
H1237       H  0.16136694  0.75144576  0.87180379     0.11700
H1238       H  0.14541058  0.73511558  0.90291326     0.10600
C1239       C  0.02747995  0.67029413  0.99432306    -0.03300
C1240       C  0.02998298  0.63450756  0.99020679    -0.09000
C1241       C  0.01751177  0.62180907  0.97350895    -0.16700
C1242       C  0.50220340  0.64472129  0.96083498     0.25500
C1243       C  0.49928613  0.68034115  0.96496781    -0.18300
C1244       C  0.51169481  0.69304070  0.98163586    -0.07300
C1245       C  0.48951354  0.63190966  0.94356451    -0.13700
C1246       C  0.47882246  0.62252579  0.92886259    -0.13400
C1247       C  0.46634553  0.61301950  0.91098147     0.25400
C1248       C  0.46136792  0.63897980  0.89779801    -0.18800
C1249       C  0.45005782  0.62998322  0.88029638    -0.07300
C1250       C  0.44370519  0.59481127  0.87569131    -0.03400
C1251       C  0.44858081  0.56886686  0.88902383    -0.08700
C1252       C  0.45968739  0.57796208  0.90659800    -0.16300
H1253       H  0.04204098  0.61655834  0.99981282     0.11800
H1254       H  0.01990879  0.59419658  0.97046299     0.11100
H1255       H  0.48742607  0.69830819  0.95529906     0.11000
H1256       H  0.50908277  0.72064484  0.98463614     0.11600
H1257       H  0.46659076  0.66616603  0.90099104     0.11600
H1258       H  0.44716470  0.65044515  0.87020853     0.11600
H1259       H  0.44384402  0.54161782  0.88582017     0.11700
H1260       H  0.46341027  0.55764739  0.91669991     0.10600
C1261       C  0.32133299  0.98561863  0.56175530    -0.03300
C1262       C  0.31836760  0.52065610  0.56723009    -0.09000
C1263       C  0.33185262  0.53122102  0.58410965    -0.16700
C1264       C  0.34868818  0.00691720  0.59551292     0.25500
C1265       C  0.35294481  0.97229690  0.58977278    -0.18300
C1266       C  0.33945815  0.96171326  0.57295002    -0.07300
C1267       C  0.35999523  0.51687046  0.61347254    -0.13700
C1268       C  0.36824391  0.52399338  0.62887671    -0.13400
C1269       C  0.37702473  0.53175848  0.64748771     0.25400
C1270       C  0.38282297  0.50455615  0.65989673    -0.18800
C1271       C  0.39089953  0.51207896  0.67805195    -0.07300
C1272       C  0.39318886  0.54696155  0.68401923    -0.03400
C1273       C  0.38731479  0.57409836  0.67142346    -0.08700
C1274       C  0.37927553  0.56651538  0.65328614    -0.16300
H1275       H  0.30441349  0.53939719  0.55877217     0.11800
H1276       H  0.32839371  0.55807165  0.58844981     0.11100
H1277       H  0.36593972  0.95330045  0.59848107     0.11000
H1278       H  0.34220162  0.93463622  0.56886719     0.11600
H1279       H  0.38096390  0.97754209  0.65555637     0.11600
H1280       H  0.39492297  0.49064967  0.68747013     0.11600
H1281       H  0.38940885  0.60120271  0.67554656     0.11700
H1282       H  0.37484975  0.58775757  0.64378726     0.10600
C1283       C  0.20633130  0.85722857  0.68549734    -0.03300
C1284       C  0.20819830  0.89249357  0.68012171    -0.09000
C1285       C  0.21603564  0.90132484  0.66212232    -0.16700
C1286       C  0.22209676  0.87508892  0.64923580     0.25500
C1287       C  0.22070848  0.83991874  0.65447574    -0.18300
C1288       C  0.21290235  0.83101249  0.67249205    -0.07300
C1289       C  0.22947482  0.88444262  0.63064782    -0.13700
C1290       C  0.23569086  0.89366317  0.61528822    -0.13400
C1291       C  0.24380700  0.90645200  0.59734452     0.25400
C1292       C  0.25460645  0.88336797  0.58364167    -0.18800
C1293       C  0.26456192  0.89625445  0.56656736    -0.07300
C1294       C  0.26388048  0.93238582  0.56305662    -0.03400
C1295       C  0.25154985  0.95520052  0.57665256    -0.08700
C1296       C  0.24191346  0.94233752  0.59373227    -0.16300
H1297       H  0.20377080  0.91325538  0.68986518     0.11800
H1298       H  0.21723017  0.92863948  0.65823924     0.11100
H1299       H  0.22534900  0.81939153  0.64461308     0.11000
H1300       H  0.21126529  0.80362951  0.67615776     0.11600
H1301       H  0.25603043  0.85552304  0.58626916     0.11600
H1302       H  0.27384564  0.87816957  0.55629033     0.11600
H1303       H  0.25007600  0.98307126  0.57415235     0.11700
H1304       H  0.23342943  0.96043414  0.60419401     0.10600
C1305       C  0.18404604  0.56277360  0.18123261    -0.03300
C1306       C  0.19137428  0.58896176  0.16826888    -0.09000
C1307       C  0.20246521  0.58005523  0.15064499    -0.16700
C1308       C  0.20653302  0.54486277  0.14571769     0.25500
C1309       C  0.19888809  0.51870922  0.15845764    -0.18300
C1310       C  0.18773901  0.52752569  0.17602122    -0.07300
C1311       C  0.21909015  0.53521890  0.12779252    -0.13700
C1312       C  0.22968349  0.52500317  0.11318237    -0.13400
C1313       C  0.24205798  0.51068477  0.09609272     0.25400
C1314       C  0.21808921  0.99398570  0.08431284    -0.18800
C1315       C  0.23013641  0.97886457  0.06809985    -0.07300
C1316       C  0.26641937  0.97991715  0.06352029    -0.03400
C1317       C  0.29031412  0.49705052  0.07527243    -0.08700
C1318       C  0.27820775  0.51231233  0.09144860    -0.16300
H1319       H  0.18865604  0.61632220  0.17178596     0.11800
H1320       H  0.20819687  0.60061249  0.14093864     0.11100
H1321       H  0.20203162  0.99139425  0.15489341     0.11000
H1322       H  0.18306860  0.50669450  0.18570561     0.11600
H1323       H  0.19010318  0.99237410  0.08773919     0.11600
H1324       H  0.21126050  0.96578013  0.05926678     0.11600
H1325       H  0.31834022  0.49850856  0.07192779     0.11700
H1326       H  0.29708586  0.52510325  0.10040170     0.10600
C1327       C  0.08011985  0.68538082  0.49698771    -0.03300
C1328       C  0.07726284  0.64949751  0.49315967    -0.09000
C1329       C  0.08716048  0.63662008  0.47607514    -0.16700
C1330       C  0.10012716  0.65948728  0.46273721     0.25500
C1331       C  0.10449824  0.69497678  0.46678513    -0.18300
C1332       C  0.09485526  0.70780292  0.48384839    -0.07300
C1333       C  0.10756769  0.64714160  0.44463956    -0.13700
C1334       C  0.11324038  0.63871236  0.42910551    -0.13400
C1335       C  0.12019443  0.63023420  0.41035999     0.25400
C1336       C  0.15512188  0.63076708  0.40381781    -0.18800
C1337       C  0.16204348  0.62289499  0.38560654    -0.07300
C1338       C  0.13406547  0.61445691  0.37360819    -0.03400
C1339       C  0.09896320  0.61419623  0.38029880    -0.08700
C1340       C  0.09211094  0.62203352  0.39855268    -0.16300
H1341       H  0.06605305  0.63176727  0.50311104     0.11800
H1342       H  0.08380652  0.60906803  0.47311007     0.11100
H1343       H  0.11464554  0.71288729  0.45661485     0.11000
H1344       H  0.09781122  0.73546460  0.48662057     0.11600
H1345       H  0.17706251  0.63712190  0.41282043     0.11600
H1346       H  0.18940313  0.62276825  0.38101231     0.11600
H1347       H  0.07678800  0.60822348  0.37139324     0.11700
H1348       H  0.06492243  0.62177602  0.40343938     0.10600
C1349       C  0.31447441  0.98796595  0.49442700    -0.03300
C1350       C  0.33154924  0.96574289  0.48198804    -0.09000
C1351       C  0.34477819  0.97897414  0.46560423    -0.16700
C1352       C  0.34123803  0.01457885  0.46148287     0.25500
C1353       C  0.32439055  0.53690710  0.47387270    -0.18300
C1354       C  0.31121141  0.52370330  0.49030074    -0.07300
C1355       C  0.35479405  0.52797647  0.44450436    -0.13700
C1356       C  0.36605913  0.53779083  0.42999669    -0.13400
C1357       C  0.37895533  0.54745373  0.41221677     0.25400
C1358       C  0.38462676  0.58262582  0.40768317    -0.18800
C1359       C  0.39573099  0.59176155  0.39011871    -0.07300
C1360       C  0.40154803  0.56576270  0.37692910    -0.03400
C1361       C  0.39629643  0.53049572  0.38172533    -0.08700
C1362       C  0.38504252  0.52145890  0.39921004    -0.16300
H1363       H  0.33470748  0.93818901  0.48500532     0.11800
H1364       H  0.35779046  0.96143758  0.45615371     0.11100
H1365       H  0.32142935  0.56447960  0.47083464     0.11000
H1366       H  0.29814261  0.54124538  0.49972218     0.11600
H1367       H  0.38003820  0.60299246  0.41763824     0.11600
H1368       H  0.39961146  0.61909252  0.38679833     0.11600
H1369       H  0.39986179  0.50993007  0.37177588     0.11700
H1370       H  0.38058809  0.99418254  0.40250415     0.10600
C1371       C  0.07703440  0.72529116  0.06322057    -0.03300
C1372       C  0.09213092  0.70272505  0.07621530    -0.09000
C1373       C  0.10138952  0.71520915  0.09345208    -0.16700
C1374       C  0.09584271  0.75040568  0.09786166     0.25500
C1375       C  0.08160809  0.77321010  0.08481543    -0.18300
C1376       C  0.07236932  0.76074792  0.06754197    -0.07300
C1377       C  0.10391971  0.76277579  0.11591571    -0.13700
C1378       C  0.11025921  0.77197850  0.13128384    -0.13400
C1379       C  0.11768535  0.78140401  0.14988611     0.25400
C1380       C  0.12073571  0.81658708  0.15493981    -0.18800
C1381       C  0.12820547  0.82549307  0.17302071    -0.07300
C1382       C  0.13287192  0.79925855  0.18625275    -0.03400
C1383       C  0.12954839  0.76402073  0.18104472    -0.08700
C1384       C  0.12195958  0.75519305  0.16300297    -0.16300
H1385       H  0.09605058  0.67531243  0.07310696     0.11800
H1386       H  0.11238974  0.69731626  0.10341893     0.11100
H1387       H  0.07713679  0.80047227  0.08808747     0.11000
H1388       H  0.06055015  0.77846572  0.05774449     0.11600
H1389       H  0.11753044  0.83710514  0.14490101     0.11600
H1390       H  0.13100184  0.85282823  0.17659133     0.11600
H1391       H  0.13260044  0.74329180  0.19096895     0.11700
H1392       H  0.11951160  0.72788738  0.15927427     0.10600
C1393       C  0.01998536  0.67239943  0.06186731    -0.03300
C1394       C  0.52336758  0.63757558  0.06769297    -0.09000
C1395       C  0.51030791  0.62741805  0.08474213    -0.16700
C1396       C  0.49350853  0.65190915  0.09602504     0.25500
C1397       C  0.48881817  0.68628820  0.08992780    -0.18300
C1398       C  0.00182407  0.69643828  0.07293205    -0.07300
C1399       C  0.48246288  0.64238216  0.11415097    -0.13700
C1400       C  0.47414441  0.63554570  0.12961330    -0.13400
C1401       C  0.46502969  0.62792095  0.14825964     0.25400
C1402       C  0.45813499  0.65516204  0.16048531    -0.18800
C1403       C  0.44984275  0.64777337  0.17864771    -0.07300
C1404       C  0.44840856  0.61296887  0.18486098    -0.03400
C1405       C  0.45519906  0.58579108  0.17242180    -0.08700
C1406       C  0.46347541  0.59323744  0.15428611    -0.16300
H1407       H  0.53734625  0.61869492  0.05937918     0.11800
H1408       H  0.51408277  0.60072953  0.08930370     0.11100
H1409       H  0.47582922  0.70546471  0.09848570     0.11000
H1410       H  0.99872034  0.72335800  0.06861960     0.11600
H1411       H  0.45936708  0.68213422  0.15600632     0.11600
H1412       H  0.44510378  0.66929513  0.18789174     0.11600
H1413       H  0.45372538  0.55870955  0.17666313     0.11700
H1414       H  0.46867006  0.57191829  0.14496441     0.10600
C1415       C  0.25977201  0.93136852  0.49545729    -0.03300
C1416       C  0.24236554  0.95287893  0.48275207    -0.09000
C1417       C  0.22936216  0.93881863  0.46649904    -0.16700
C1418       C  0.23343363  0.90310898  0.46283293     0.25500
C1419       C  0.25009430  0.88140546  0.47562156    -0.18300
C1420       C  0.26308534  0.89543446  0.49189334    -0.07300
C1421       C  0.22133609  0.88898310  0.44575448    -0.13700
C1422       C  0.21197509  0.87788316  0.43115386    -0.13400
C1423       C  0.20172595  0.86572732  0.41335763     0.25400
C1424       C  0.16591093  0.86603884  0.40804368    -0.18800
C1425       C  0.15621865  0.85583392  0.39042933    -0.07300
C1426       C  0.18228183  0.84520790  0.37786790    -0.03400
C1427       C  0.21818422  0.84453157  0.38348136    -0.08700
C1428       C  0.22777772  0.85467314  0.40108234    -0.16300
H1429       H  0.23916803  0.98057214  0.48536124     0.11800
H1430       H  0.21645012  0.95584055  0.45672086     0.11100
H1431       H  0.25340793  0.85374962  0.47292261     0.11000
H1432       H  0.27642239  0.87844284  0.50153281     0.11600
H1433       H  0.14551382  0.87456454  0.41744259     0.11600
H1434       H  0.12837374  0.85641390  0.38661138     0.11600
H1435       H  0.23906235  0.83724485  0.37409314     0.11700
H1436       H  0.25560615  0.85451696  0.40500069     0.10600
C1437       C  0.32041766  0.92248395  0.06387254    -0.03300
C1438       C  0.35718530  0.92308927  0.06741846    -0.09000
C1439       C  0.37058544  0.90987544  0.08382204    -0.16700
C1440       C  0.34740130  0.89568911  0.09677580     0.25500
C1441       C  0.31078023  0.89460967  0.09320170    -0.18300
C1442       C  0.29736370  0.90783387  0.07683363    -0.07300
C1443       C  0.36094895  0.88272344  0.11385850    -0.13700
C1444       C  0.37099571  0.87238596  0.12851444    -0.13400
C1445       C  0.38113798  0.86092199  0.14647901     0.25400
C1446       C  0.35481889  0.85172478  0.15902832    -0.18800
C1447       C  0.36418432  0.84226175  0.17676388    -0.07300
C1448       C  0.40013498  0.84175865  0.18225840    -0.03400
C1449       C  0.42648825  0.85047985  0.16944232    -0.08700
C1450       C  0.41702162  0.86001336  0.15167810    -0.16300
H1451       H  0.37539895  0.93424447  0.05759887     0.11800
H1452       H  0.39895975  0.91089383  0.08644085     0.11100
H1453       H  0.29258179  0.88364830  0.10309491     0.11000
H1454       H  0.26898615  0.90666050  0.07426350     0.11600
H1455       H  0.32695178  0.85252838  0.15520737     0.11600
H1456       H  0.34312925  0.83650894  0.18634091     0.11600
H1457       H  0.45437699  0.85017167  0.17318988     0.11700
H1458       H  0.43764444  0.86709538  0.14207996     0.10600
C1459       C  0.45608886  0.79789012  0.37233703    -0.03300
C1460       C  0.45832126  0.76314436  0.37858045    -0.09000
C1461       C  0.46776991  0.75597330  0.39664073    -0.16700
C1462       C  0.47507372  0.78337099  0.40872980     0.25500
C1463       C  0.47324144  0.81797915  0.40260159    -0.18300
C1464       C  0.46382896  0.82520948  0.38456549    -0.07300
C1465       C  0.48408820  0.77599026  0.42744139    -0.13700
C1466       C  0.49158557  0.76923444  0.44304400    -0.13400
C1467       C  0.50101911  0.75969182  0.46143352     0.25400
C1468       C  0.01702019  0.78409106  0.47310656    -0.18800
C1469       C  0.02818001  0.77397819  0.49053826    -0.07300
C1470       C  0.02371493  0.73927555  0.49637545    -0.03400
C1471       C  0.50641998  0.71531497  0.48486098    -0.08700
C1472       C  0.49527216  0.72543795  0.46748672    -0.16300
H1473       H  0.45291685  0.74152289  0.36948067     0.11800
H1474       H  0.46922168  0.72905657  0.40119411     0.11100
H1475       H  0.47875365  0.83941958  0.41181350     0.11000
H1476       H  0.46183175  0.85224838  0.38030439     0.11600
H1477       H  0.02158663  0.81068401  0.46859118     0.11600
H1478       H  0.04156466  0.79278709  0.49918185     0.11600
H1479       H  0.50255879  0.68847768  0.48914780     0.11700
H1480       H  0.48285690  0.70633845  0.45863142     0.10600
C1481       C  0.94477827  0.30582922  0.35334134     0.03200
C1482       C  0.91665705  0.28721612  0.34518511    -0.12900
C1483       C  0.90418754  0.29629824  0.32776858     0.00700
C1484       C  0.92031915  0.32410065  0.31840603    -0.11400
C1485       C  0.94864490  0.34273900  0.32622722     0.03200
C1486       C  0.96089913  0.33322915  0.34360843    -0.10900
H1487       H  0.90360314  0.26657444  0.35272072     0.08800
H1488       H  0.91069640  0.33122869  0.30501994     0.06300
H1489       H  0.98282520  0.34746378  0.34969466     0.06200
C1490       C  0.90952216  0.33469250  0.20160772     0.03200
C1491       C  0.93516943  0.35542342  0.21052581    -0.12900
C1492       C  0.93957904  0.35331794  0.22944664     0.00700
C1493       C  0.91865152  0.32988634  0.23947278    -0.11400
C1494       C  0.89416702  0.30786115  0.23072382     0.03200
C1495       C  0.89009159  0.31000968  0.21178296    -0.10900
H1496       H  0.94971321  0.37514453  0.20300869     0.08800
H1497       H  0.92127273  0.32900856  0.25415353     0.06300
H1498       H  0.87041504  0.29373712  0.20509770     0.06200
C1499       C  0.67269057  0.33692998  0.35866989     0.03200
C1500       C  0.64767133  0.35757805  0.34920958    -0.12900
C1501       C  0.64296171  0.35374174  0.33035527     0.00700
C1502       C  0.66334712  0.32887449  0.32095123    -0.11400
C1503       C  0.68689900  0.30671531  0.33034301     0.03200
C1504       C  0.69107173  0.31057568  0.34919105    -0.10900
H1505       H  0.63365184  0.37829636  0.35622783     0.08800
H1506       H  0.66076453  0.32665483  0.30630813     0.06300
H1507       H  0.71007601  0.29423019  0.35632492     0.06200
C1508       C  0.93979858  0.10488822  0.20418743     0.03200
C1509       C  0.91298042  0.12334752  0.21335768    -0.12900
C1510       C  0.90356242  0.11466314  0.23131113     0.00700
C1511       C  0.92140409  0.08709907  0.24015402    -0.11400
C1512       C  0.94880700  0.06879591  0.23130786     0.03200
C1513       C  0.95783806  0.07800758  0.21339110    -0.10900
H1514       H  0.89861087  0.14369236  0.20622007     0.08800
H1515       H  0.91421172  0.08012024  0.25395162     0.06300
H1516       H  0.97880961  0.06404762  0.20643310     0.06200
C1517       C  0.96484834  0.37279444  0.31662247     0.42600
N1518       N  0.49847055  0.41687988  0.31118181     0.01400
C1519       C  0.50008383  0.02216257  0.23430475    -0.06400
H1520       H  0.51094238  0.38953798  0.22055826     0.06900
C1521       C  0.62836194  0.39165490  0.25835544    -0.06800
Co1522     Co  0.97566880  0.45665451  0.27792786     0.74200
N1523       N  0.50289216  0.41953824  0.24512132    -0.26000
Co1524     Co  0.54354147  0.45686068  0.24600841     0.74100
C1525       C  0.61649651  0.37488356  0.24153945     0.42700
N1526       N  0.60335015  0.41766798  0.30134050     0.01100
N1527       N  0.58234370  0.41820111  0.24737777     0.01200
N1528       N  0.95581023  0.02182949  0.25515092    -0.46800
H1529       H  0.92986452  0.38451631  0.29146979     0.06900
N1530       N  0.47759915  0.41914820  0.25753667     0.01500
N1531       N  0.58430147  0.49415053  0.24716970     0.01200
C1532       C  0.62308544  0.03310801  0.24010630     0.42800
N1533       N  0.57803461  0.41778521  0.31374965    -0.25400
C1534       C  0.95119338  0.01952177  0.30128293    -0.06300
N1535       N  0.49338190  0.39078971  0.32272288    -0.46500
N1536       N  0.59338017  0.01661508  0.23419629    -0.46700
C1537       C  0.96149330  0.03462442  0.31870403     0.42600
N1538       N  0.47863466  0.49585748  0.25794354     0.01400
N1539       N  0.57661115  0.49351510  0.31374037    -0.25400
N1540       N  0.97478619  0.41746501  0.29788027    -0.25900
N1541       N  0.60241880  0.49427479  0.30158422     0.01100
H1542       H  0.56461024  0.02504519  0.33720525     0.07000
H1543       H  0.65553769  0.02252714  0.26610232     0.07000
N1544       N  0.50463906  0.49554068  0.24588419    -0.26000
N1545       N  0.60570969  0.41814465  0.26083096    -0.25600
N1546       N  0.49749309  0.49308910  0.31212299     0.01400
C1547       C  0.96279764  0.37830827  0.23907169     0.42800
C1548       C  0.58584833  0.39354545  0.32638864    -0.06800
N1549       N  0.60700741  0.49412687  0.26089914    -0.25600
H1550       H  0.65082341  0.38572866  0.26704185     0.07000
N1551       N  0.95309610  0.39501368  0.25441105    -0.46800
H1552       H  0.57093565  0.38871905  0.33870400     0.07000
C1553       C  0.61369583  0.03714133  0.31949490     0.42700
C1554       C  0.95235216  0.39048602  0.30013266    -0.06300
Co1555     Co  0.53753053  0.45524343  0.31306199     0.73800
N1556       N  0.62849097  0.39422628  0.30474307    -0.46500
C1557       C  0.96771011  0.03963492  0.24045173     0.42900
N1558       N  0.49008694  0.01663907  0.32480702    -0.46500
Co1559     Co  0.60524769  0.45612608  0.28119593     0.73900
C1560       C  0.63215002  0.01822319  0.25778945    -0.06800
C1561       C  0.49564722  0.39475802  0.23270063    -0.06400
N1562       N  0.97473244  0.49388726  0.29844002    -0.25900
N1563       N  0.58795888  0.39287746  0.23542390    -0.46700
H1564       H  0.51713655  0.02800579  0.22287478     0.07000
C1565       C  0.58144998  0.01954793  0.32564917    -0.06800
Cl1566     Cl  0.54052068  0.45624119  0.27954342    -0.49800
C1567       C  0.61915257  0.37768099  0.32023367     0.42700
H1568       H  0.92840947  0.02531009  0.29277695     0.06900
N1569       N  0.62528209  0.02003900  0.30454141    -0.46500
C1570       C  0.64190025  0.30844615  0.20534263     0.03200
C1571       C  0.62445485  0.33621312  0.21420786    -0.12900
C1572       C  0.63348981  0.34513438  0.23216311     0.00700
C1573       C  0.65984221  0.32598333  0.24122041    -0.11400
C1574       C  0.67791226  0.29870154  0.23257742     0.03200
C1575       C  0.66861459  0.28977474  0.21468274    -0.10900
H1576       H  0.60392108  0.35080433  0.20714724     0.08800
H1577       H  0.66638157  0.33241649  0.25512511     0.06300
H1578       H  0.68283793  0.26896954  0.20783805     0.06200
C1579       C  0.91078093  0.07507688  0.35788337     0.03200
C1580       C  0.93589992  0.05501427  0.34824150    -0.12900
C1581       C  0.93998690  0.05932701  0.32942277     0.00700
C1582       C  0.91965156  0.08451484  0.32032679    -0.11400
C1583       C  0.89511132  0.10527629  0.32971427     0.03200
C1584       C  0.89118515  0.10097230  0.34857601    -0.10900
H1585       H  0.95068185  0.03463657  0.35518284     0.08800
H1586       H  0.92218027  0.08724039  0.30571019     0.06300
H1587       H  0.87082120  0.11561965  0.35567926     0.06200
C1588       C  0.64174227  0.10505925  0.35436507     0.03200
C1589       C  0.66853714  0.12262630  0.34463384    -0.12900
C1590       C  0.67774161  0.11216532  0.32695340     0.00700
C1591       C  0.65941309  0.08428488  0.31882942    -0.11400
C1592       C  0.63217348  0.06688326  0.32815944     0.03200
C1593       C  0.62343742  0.07740132  0.34590155    -0.10900
H1594       H  0.68253294  0.14425643  0.35091634     0.08800
H1595       H  0.66619670  0.07608704  0.30518458     0.06300
H1596       H  0.60332161  0.06323089  0.35340999     0.06200
C1597       C  0.67501714  0.07185302  0.20044794     0.03200
C1598       C  0.65016642  0.05169898  0.21034911    -0.12900
C1599       C  0.64593852  0.05658447  0.22918218     0.00700
C1600       C  0.66634037  0.08208661  0.23806081    -0.11400
C1601       C  0.68997655  0.10339875  0.22836678     0.03200
C1602       C  0.69396377  0.09848945  0.20954999    -0.10900
H1603       H  0.63530751  0.03118225  0.20358278     0.08800
H1604       H  0.66396090  0.08528851  0.25265998     0.06300
H1605       H  0.71378626  0.11361178  0.20230995     0.06200
C1606       C  0.87026870  0.28551176  0.24160335     0.42600
N1607       N  0.82897281  0.24869459  0.24794330     0.01400
C1608       C  0.72632853  0.24976976  0.32659490    -0.06400
H1609       H  0.86202935  0.22949261  0.33742864     0.06900
C1610       C  0.85489245  0.11773143  0.30162538    -0.06800
Co1611     Co  0.79022651  0.26916252  0.28172878     0.74200
N1612       N  0.82880716  0.24120462  0.31426153    -0.26000
Co1613     Co  0.78982840  0.20255093  0.31359838     0.74100
C1614       C  0.87027978  0.12720897  0.31913681     0.42700
N1615       N  0.83072860  0.14520787  0.25831941     0.01100
N1616       N  0.82845215  0.16324901  0.31260399     0.01200
N1617       N  0.72711406  0.29149151  0.30482154    -0.46800
H1618       H  0.85916888  0.31749290  0.26746502     0.06900
N1619       N  0.82913485  0.26656484  0.30207344     0.01500
N1620       N  0.75097080  0.16390848  0.31168513     0.01200
C1621       C  0.70717539  0.12964373  0.31723483     0.42800
N1622       N  0.83027229  0.17070035  0.24620012    -0.25400
C1623       C  0.72463142  0.29219156  0.25900378    -0.06300
N1624       N  0.85287725  0.25691865  0.23539706    -0.46500
N1625       N  0.72498155  0.15793458  0.32341768    -0.46700
C1626       C  0.70734761  0.28088335  0.24219218     0.42600
N1627       N  0.75118979  0.26696873  0.30168294     0.01400
N1628       N  0.75318863  0.16868530  0.24533039    -0.25400
N1629       N  0.82892336  0.27090016  0.26166311    -0.25900
N1630       N  0.75286064  0.14387029  0.25780745     0.01100
H1631       H  0.72463386  0.17502692  0.21996653     0.07000
H1632       H  0.71929109  0.09608735  0.29189662     0.07000
N1633       N  0.75136214  0.24218449  0.31416840    -0.26000
N1634       N  0.82910462  0.14117870  0.29882170    -0.25600
N1635       N  0.75137032  0.24698799  0.24791625     0.01400
C1636       C  0.87352815  0.27781760  0.31953996     0.42800
C1637       C  0.85690493  0.16583638  0.23441154    -0.06800
N1638       N  0.75161837  0.14097431  0.29826212    -0.25600
H1639       H  0.86039480  0.09538384  0.29307134     0.07000
N1640       N  0.85543620  0.28905782  0.30474614    -0.46800
H1641       H  0.86253807  0.18231192  0.22281351     0.07000
C1642       C  0.71332889  0.12762140  0.23848373     0.42700
C1643       C  0.85433713  0.29488226  0.25897838    -0.06300
Co1644     Co  0.79088597  0.20888016  0.24646181     0.73800
N1645       N  0.85673265  0.12245008  0.25538605    -0.46500
C1646       C  0.70998125  0.28235128  0.32018762     0.42900
N1647       N  0.72551724  0.25284149  0.23598679    -0.46500
Co1648     Co  0.79111134  0.14217753  0.27830067     0.73900
C1649       C  0.72484136  0.11827047  0.30056067    -0.06800
C1650       C  0.85583591  0.24606792  0.32593049    -0.06400
N1651       N  0.75150688  0.26978521  0.26139719    -0.25900
N1652       N  0.85225423  0.15537016  0.32534345    -0.46700
H1653       H  0.72127807  0.23517097  0.33892720     0.07000
C1654       C  0.72919648  0.16056095  0.23239958    -0.06800
Cl1655     Cl  0.79048399  0.20567569  0.28002089    -0.49800
C1656       C  0.87448542  0.13382555  0.24052873     0.42700
H1657       H  0.71886761  0.31420426  0.26772763     0.06900
N1658       N  0.72957396  0.11884361  0.25420351    -0.46500
C1659       C  0.80037050  0.47394376  0.51180717     0.02400
C1660       C  0.77515650  0.44639870  0.51229773     0.02300
C1661       C  0.76400068  0.43305673  0.52914255    -0.18200
C1662       C  0.77748040  0.44643881  0.54552632     0.02400
C1663       C  0.80345512  0.47328596  0.54498323     0.02300
C1664       C  0.81395057  0.48725212  0.52819361    -0.18200
H1665       H  0.83401427  0.50763689  0.52784861     0.04400
H1666       H  0.74411618  0.41250846  0.52949582     0.04400
C1667       C  0.56392766  0.21130140  0.04562351     0.02400
C1668       C  0.53786815  0.18458823  0.04501694     0.02300
C1669       C  0.52753081  0.17071856  0.02815083    -0.18200
C1670       C  0.54151424  0.18397721  0.01181200     0.02400
C1671       C  0.56707132  0.21127892  0.01240309     0.02300
C1672       C  0.57790034  0.22459221  0.02933683    -0.18200
H1673       H  0.59782248  0.24509212  0.02986243     0.04400
H1674       H  0.00731783  0.15048767  0.02769767     0.04400
C1675       C  0.53971797  0.22713829  0.51377230     0.02400
C1676       C  0.56534231  0.19995653  0.51409442     0.02300
C1677       C  0.57741698  0.18695028  0.53086345    -0.18200
C1678       C  0.56531174  0.20108355  0.54735939     0.02400
C1679       C  0.54045248  0.22895307  0.54700313     0.02300
C1680       C  0.52817755  0.24182408  0.53021492    -0.18200
H1681       H  0.00844132  0.26250929  0.52996721     0.04400
H1682       H  0.59699507  0.16612240  0.53107431     0.04400
C1683       C  0.80608138  0.43698584  0.04661987     0.02400
C1684       C  0.77927619  0.46309837  0.04648712     0.02300
C1685       C  0.76488058  0.47401650  0.02977277    -0.18200
C1686       C  0.77714001  0.46014848  0.01325001     0.02400
C1687       C  0.80507617  0.43525797  0.01332188     0.02300
C1688       C  0.81882048  0.42362527  0.03003130    -0.18200
H1689       H  0.83968659  0.40404127  0.03012528     0.04400
H1690       H  0.74404421  0.99363421  0.02960567     0.04400
C1691       C  0.89905890  0.34988829  0.85385320     0.03200
C1692       C  0.92605687  0.36926410  0.84522019    -0.12900
C1693       C  0.93638985  0.36161086  0.82731303     0.00700
C1694       C  0.91931706  0.33444729  0.81790512    -0.11400
C1695       C  0.89221857  0.31487157  0.82616421     0.03200
C1696       C  0.88203556  0.32291765  0.84408799    -0.10900
H1697       H  0.93997501  0.38943368  0.85271313     0.08800
H1698       H  0.92729352  0.32853980  0.80410700     0.06300
H1699       H  0.86100481  0.30799104  0.85049307     0.06200
C1700       C  0.93400813  0.08542578  0.85673337     0.03200
C1701       C  0.90868948  0.10545648  0.84716004    -0.12900
C1702       C  0.90381854  0.10068324  0.82841845     0.00700
C1703       C  0.92377115  0.07530811  0.81932012    -0.11400
C1704       C  0.94844113  0.05454183  0.82867886     0.03200
C1705       C  0.95308311  0.05920398  0.84747499    -0.10900
H1706       H  0.89426390  0.12603839  0.85408821     0.08800
H1707       H  0.92069591  0.07229929  0.80473944     0.06300
H1708       H  0.97351770  0.04449513  0.85455218     0.06200
C1709       C  0.70258238  0.04899095  0.85249680     0.03200
C1710       C  0.72087155  0.07667435  0.84408145    -0.12900
C1711       C  0.71130161  0.08799267  0.82656633     0.00700
C1712       C  0.68352360  0.07101898  0.81734954    -0.11400
C1713       C  0.66525973  0.04305538  0.82545304     0.03200
C1714       C  0.67503147  0.03211601  0.84297875    -0.10900
H1715       H  0.74219928  0.08966859  0.85132834     0.08800
H1716       H  0.67615389  0.07973562  0.80385160     0.06300
H1717       H  0.66027680  0.01126006  0.84949728     0.06200
C1718       C  0.66698567  0.31700681  0.85729234     0.03200
C1719       C  0.64755327  0.34315622  0.84810189    -0.12900
C1720       C  0.65184522  0.34826888  0.82929454     0.00700
C1721       C  0.67608014  0.32727659  0.81969561    -0.11400
C1722       C  0.69714169  0.30255486  0.82885499     0.03200
C1723       C  0.69270413  0.29780719  0.84762795    -0.10900
H1724       H  0.62731211  0.35782335  0.85527641     0.08800
H1725       H  0.67868198  0.33030494  0.80509551     0.06300
H1726       H  0.70818047  0.27794340  0.85457262     0.06200
C1727       C  0.66808909  0.08287721  0.70001987     0.03200
C1728       C  0.69334703  0.10267116  0.70981117    -0.12900
C1729       C  0.69753861  0.09788114  0.72865601     0.00700
C1730       C  0.67702333  0.07249059  0.73756301    -0.11400
C1731       C  0.65312456  0.05137192  0.72786407     0.03200
C1732       C  0.64900716  0.05639969  0.70908460    -0.10900
H1733       H  0.70756802  0.12366733  0.70309877     0.08800
H1734       H  0.67931429  0.06941928  0.75218035     0.06300
H1735       H  0.62936594  0.04117223  0.70172969     0.06200
C1736       C  0.90202133  0.05514410  0.70324762     0.03200
C1737       C  0.88420848  0.08209605  0.71238204    -0.12900
C1738       C  0.89346354  0.09128012  0.73027644     0.00700
C1739       C  0.92098296  0.07298720  0.73911864    -0.11400
C1740       C  0.93854700  0.04531198  0.73028320     0.03200
C1741       C  0.92886997  0.03664557  0.71237299    -0.10900
H1742       H  0.86321804  0.09607010  0.70538325     0.08800
H1743       H  0.92833845  0.07992342  0.75291144     0.06300
H1744       H  0.94300459  0.01622037  0.70522245     0.06200
C1745       C  0.87540688  0.28539392  0.81628427     0.42600
N1746       N  0.84180588  0.24142201  0.81045539     0.01400
C1747       C  0.84153996  0.13693494  0.73332149    -0.06400
H1748       H  0.82702660  0.26930053  0.71982892     0.06900
C1749       C  0.71056322  0.26413506  0.75739706    -0.06800
Co1750     Co  0.86490725  0.20255736  0.77702139     0.74200
N1751       N  0.83628023  0.23924864  0.74429728    -0.26000
Co1752     Co  0.79673529  0.20089344  0.74511653     0.74100
C1753       C  0.72207035  0.28122426  0.74062271     0.42700
N1754       N  0.73692314  0.23865873  0.80024952     0.01100
N1755       N  0.75704388  0.23853025  0.74645489     0.01200
N1756       N  0.88607737  0.13806672  0.75413197    -0.46800
H1757       H  0.91006057  0.27462469  0.79098139     0.06900
N1758       N  0.86166789  0.24021760  0.75671369     0.01500
N1759       N  0.75707779  0.16250464  0.74632337     0.01200
C1760       C  0.71985258  0.12190960  0.73954523     0.42800
N1761       N  0.76238847  0.23906660  0.81263409    -0.25400
C1762       C  0.89129948  0.14024078  0.80030994    -0.06300
N1763       N  0.84707628  0.26701884  0.82229412    -0.46500
N1764       N  0.74883464  0.13938629  0.73351997    -0.46700
C1765       C  0.88163001  0.12491097  0.81774745     0.42600
N1766       N  0.86270129  0.16350887  0.75697466     0.01400
N1767       N  0.76517131  0.16308601  0.81270090    -0.25400
N1768       N  0.86524407  0.24146981  0.79709619    -0.25900
N1769       N  0.73927497  0.16199170  0.80054599     0.01100
H1770       H  0.77825868  0.13102753  0.83587927     0.07000
H1771       H  0.68716742  0.13187451  0.76545020     0.07000
N1772       N  0.83655228  0.16331757  0.74494268    -0.26000
N1773       N  0.73376408  0.23806468  0.75987466    -0.25600
N1774       N  0.84433735  0.16533527  0.81115519     0.01400
C1775       C  0.87497683  0.28173048  0.73836937     0.42800
C1776       C  0.75476953  0.26386602  0.82494468    -0.06800
N1777       N  0.73445426  0.16202024  0.76002506    -0.25600
H1778       H  0.68808219  0.26966802  0.76608282     0.07000
N1779       N  0.88538100  0.26509384  0.75364606    -0.46800
H1780       H  0.76997518  0.26938650  0.83711842     0.07000
C1781       C  0.72930256  0.11821695  0.81807372     0.42700
C1782       C  0.88757854  0.26843961  0.79955880    -0.06300
Co1783     Co  0.80347173  0.20227598  0.81212860     0.73800
N1784       N  0.71181475  0.26221854  0.80337855    -0.46500
C1785       C  0.87436136  0.12016715  0.73941339     0.42900
N1786       N  0.85258018  0.14204171  0.82386065    -0.46500
Co1787     Co  0.73542601  0.20011368  0.78022485     0.73900
C1788       C  0.71024954  0.13693681  0.75708229    -0.06800
C1789       C  0.84260943  0.26438643  0.73195096    -0.06400
N1790       N  0.86698116  0.16518418  0.79746420    -0.25900
N1791       N  0.75092243  0.26382334  0.73453679    -0.46700
H1792       H  0.82442787  0.13079409  0.72192040     0.07000
C1793       C  0.76112326  0.13651273  0.82439278    -0.06800
Cl1794     Cl  0.80013477  0.20143407  0.77862104    -0.49800
C1795       C  0.72140495  0.27947510  0.81862021     0.42700
H1796       H  0.91419799  0.13513828  0.79182285     0.06900
N1797       N  0.71715730  0.13554057  0.80327930    -0.46500
C1798       C  0.92787043  0.32476666  0.70077480     0.03200
C1799       C  0.94763987  0.34937214  0.71083947    -0.12900
C1800       C  0.94337442  0.35207532  0.72973580     0.00700
C1801       C  0.91868288  0.33045105  0.73855178    -0.11400
C1802       C  0.89772709  0.30686292  0.72863252     0.03200
C1803       C  0.90196567  0.30451591  0.70973709    -0.10900
H1804       H  0.96835765  0.36443223  0.70424649     0.08800
H1805       H  0.91611634  0.33157159  0.75322408     0.06300
H1806       H  0.88658148  0.28544147  0.70218027     0.06200
C1807       C  0.69685348  0.34787321  0.70449582     0.03200
C1808       C  0.66959096  0.36605043  0.71360557    -0.12900
C1809       C  0.65985252  0.35673522  0.73137309     0.00700
C1810       C  0.67777279  0.32934444  0.74007064    -0.11400
C1811       C  0.70476180  0.31081294  0.73124744     0.03200
C1812       C  0.71440717  0.32028375  0.71348444    -0.10900
H1813       H  0.65532987  0.38680954  0.70669834     0.08800
H1814       H  0.67076118  0.32245757  0.75384560     0.06300
H1815       H  0.73552096  0.30619830  0.70665753     0.06200
C1816       C  0.96768147  0.37406288  0.74058531     0.42600
N1817       N  0.50995498  0.40985753  0.74684495     0.01400
C1818       C  0.61306420  0.40577317  0.82565450    -0.06400
H1819       H  0.97874630  0.42858120  0.83658702     0.06900
C1820       C  0.98784922  0.04113396  0.80056050    -0.06800
Co1821     Co  0.54863851  0.38826383  0.78059059     0.74200
N1822       N  0.51105187  0.41688058  0.81315856    -0.26000
Co1823     Co  0.55091028  0.45470892  0.81250256     0.74100
C1824       C  0.97254312  0.03203548  0.81810136     0.42700
N1825       N  0.51091117  0.01324130  0.75725503     0.01100
N1826       N  0.51321477  0.99490054  0.81150706     0.01200
N1827       N  0.61131157  0.36423190  0.80381579    -0.46800
H1828       H  0.97838042  0.34175545  0.76641954     0.06900
N1829       N  0.51005243  0.39164033  0.80092843     0.01500
N1830       N  0.59066712  0.99256758  0.81055831     0.01200
C1831       C  0.63515860  0.02613466  0.81595369     0.42800
N1832       N  0.51069261  0.98781515  0.74512237    -0.25400
C1833       C  0.61317590  0.36362294  0.75769893    -0.06300
N1834       N  0.98567601  0.40223757  0.73433089    -0.46500
N1835       N  0.61698930  0.99811230  0.82222015    -0.46700
C1836       C  0.63041277  0.37459859  0.74085018     0.42600
N1837       N  0.58793057  0.38941051  0.80059167     0.01400
N1838       N  0.58782320  0.98788411  0.74434507    -0.25400
N1839       N  0.50966292  0.38761091  0.76056212    -0.25900
N1840       N  0.58874969  0.01262283  0.75683469     0.01100
H1841       H  0.61678109  0.98065164  0.71924372     0.07000
H1842       H  0.62316821  0.05985573  0.79063306     0.07000
N1843       N  0.58837922  0.41412741  0.81310511    -0.26000
N1844       N  0.51291982  0.01700977  0.79772040    -0.25600
N1845       N  0.58749133  0.40960114  0.74673467     0.01400
C1846       C  0.96607773  0.38067187  0.81860647     0.42800
C1847       C  0.98413873  0.99333901  0.73332324    -0.06800
N1848       N  0.59023498  0.01553168  0.79713488    -0.25600
H1849       H  0.98286444  0.06367570  0.79203245     0.07000
N1850       N  0.98361899  0.36938663  0.80370986    -0.46800
H1851       H  0.97803613  0.97701819  0.72172584     0.07000
C1852       C  0.62928744  0.02759705  0.73789249     0.42700
C1853       C  0.98362592  0.36427379  0.75792739    -0.06300
Co1854     Co  0.54904117  0.44869515  0.74536416     0.73800
N1855       N  0.98545413  0.03662230  0.75432978    -0.46500
C1856       C  0.62851353  0.37280919  0.81929635     0.42900
N1857       N  0.61294341  0.40317224  0.73473549    -0.46500
Co1858     Co  0.55065164  0.01521116  0.77722723     0.73900
C1859       C  0.61740516  0.03778824  0.79934055    -0.06800
C1860       C  0.98429436  0.41219460  0.82495596    -0.06400
N1861       N  0.58700384  0.38674627  0.76020068    -0.25900
N1862       N  0.98986918  0.00339682  0.82429342    -0.46700
H1863       H  0.61841432  0.42013344  0.83803090     0.07000
C1864       C  0.61236719  0.99526407  0.73162393    -0.06800
Cl1865     Cl  0.54984487  0.45172033  0.77892331    -0.49800
C1866       C  0.96738621  0.02570570  0.73945578     0.42700
H1867       H  0.61851945  0.34141318  0.76638573     0.06900
N1868       N  0.61297300  0.03685865  0.75345938    -0.46500
C1869       C  0.71072979  0.03894199  0.87157276    -0.03300
C1870       C  0.71694586  0.06481072  0.88481371    -0.09000
C1871       C  0.72234075  0.05554823  0.90300022    -0.16700
C1872       C  0.72158999  0.02036469  0.90820669     0.25500
C1873       C  0.71610492  0.99437933  0.89509962    -0.18300
C1874       C  0.71071398  0.00357751  0.87689269    -0.07300
C1875       C  0.72631683  0.01097563  0.92700501    -0.13700
C1876       C  0.73098102  0.00303828  0.94269593    -0.13400
C1877       C  0.73855577  0.99302131  0.96116083     0.25400
C1878       C  0.73527595  0.45799771  0.96643369    -0.18800
C1879       C  0.74609820  0.44755795  0.98379605    -0.07300
C1880       C  0.76067242  0.47201289  0.99598185    -0.03400
C1881       C  0.76225012  0.00739719  0.99094577    -0.08700
C1882       C  0.75134255  0.01782856  0.97357051    -0.16300
H1883       H  0.71663672  0.09226792  0.88120938     0.11800
H1884       H  0.72663579  0.07585924  0.91303696     0.11100
H1885       H  0.71573503  0.96703607  0.89897073     0.11000
H1886       H  0.70645281  0.98305787  0.86698029     0.11600
H1887       H  0.72535709  0.43860413  0.95695436     0.11600
H1888       H  0.74437741  0.42019497  0.98750908     0.11600
H1889       H  0.77344733  0.02660345  0.00014585     0.11700
H1890       H  0.75396050  0.04500529  0.96961860     0.10600
C1891       C  0.88959019  0.35717214  0.87320409    -0.03300
C1892       C  0.88205764  0.32963862  0.88535515    -0.09000
C1893       C  0.87382661  0.33652787  0.90359280    -0.16700
C1894       C  0.87302320  0.37100706  0.91000692     0.25500
C1895       C  0.88055201  0.39853208  0.89804411    -0.18300
C1896       C  0.88873011  0.39172521  0.87981760    -0.07300
C1897       C  0.86393130  0.37840777  0.92872752    -0.13700
C1898       C  0.85572059  0.38629390  0.94409688    -0.13400
C1899       C  0.84507883  0.39797205  0.96199444     0.25400
C1900       C  0.84696864  0.43356850  0.96637052    -0.18800
C1901       C  0.83506905  0.44547189  0.98328792    -0.07300
C1902       C  0.82079441  0.42197866  0.99606090    -0.03400
C1903       C  0.81986351  0.38614376  0.99183072    -0.08700
C1904       C  0.83182158  0.37423073  0.97486139    -0.16300
H1905       H  0.88306787  0.30271225  0.88084616     0.11800
H1906       H  0.86813123  0.31494919  0.91268698     0.11100
H1907       H  0.87990651  0.42534727  0.90278424     0.11000
H1908       H  0.89396277  0.41358370  0.87084705     0.11600
H1909       H  0.85717028  0.45223511  0.95659119     0.11600
H1910       H  0.83631850  0.47316579  0.98629998     0.11600
H1911       H  0.80888513  0.36759324  0.00143839     0.11700
H1912       H  0.83016991  0.34662629  0.97166925     0.10600
C1913       C  0.65817354  0.09296323  0.68112209    -0.03300
C1914       C  0.62203346  0.09648313  0.67633714    -0.09000
C1915       C  0.61220949  0.10874202  0.65912791    -0.16700
C1916       C  0.63827363  0.11758907  0.64636513     0.25500
C1917       C  0.67434507  0.11350376  0.65083872    -0.18300
C1918       C  0.68426163  0.10139371  0.66813644    -0.07300
C1919       C  0.62775627  0.13176515  0.62894595    -0.13700
C1920       C  0.61767949  0.14399714  0.61466845    -0.13400
C1921       C  0.60478636  0.15845362  0.59773360     0.25400
C1922       C  0.60851019  0.19423754  0.59405799    -0.18800
C1923       C  0.59594353  0.20815985  0.57763062    -0.07300
C1924       C  0.57929811  0.18646840  0.56471866    -0.03400
C1925       C  0.57577927  0.15060133  0.56846658    -0.08700
C1926       C  0.58833009  0.13672279  0.58489138    -0.16300
H1927       H  0.60131571  0.09084511  0.68612895     0.11800
H1928       H  0.58423739  0.11189173  0.65588867     0.11100
H1929       H  0.69479495  0.12018047  0.64106851     0.11000
H1930       H  0.71225708  0.09885277  0.67142575     0.11600
H1931       H  0.62115941  0.21135698  0.60387008     0.11600
H1932       H  0.59924062  0.23582770  0.57496745     0.11600
H1933       H  0.56291299  0.13344288  0.55875199     0.11700
H1934       H  0.58515972  0.10903971  0.58758260     0.10600
C1935       C  0.93745055  0.31721695  0.68155629    -0.03300
C1936       C  0.93938955  0.28237535  0.67543848    -0.09000
C1937       C  0.95129633  0.27478073  0.65790264    -0.16700
C1938       C  0.96154222  0.30179819  0.64620300     0.25500
C1939       C  0.95926276  0.33658117  0.65201728    -0.18300
C1940       C  0.94727218  0.34427528  0.66958059    -0.07300
C1941       C  0.97501067  0.29346699  0.62840905    -0.13700
C1942       C  0.98627227  0.28432127  0.61382090    -0.13400
C1943       C  0.49928182  0.27088771  0.59679989     0.25400
C1944       C  0.51717929  0.29275471  0.58455615    -0.18800
C1945       C  0.53008636  0.27925041  0.56815274    -0.07300
C1946       C  0.52547510  0.24370006  0.56396468    -0.03400
C1947       C  0.50710748  0.22204698  0.57619543    -0.08700
C1948       C  0.99417280  0.23556319  0.59253673    -0.16300
H1949       H  0.93284838  0.26084981  0.68440175     0.11800
H1950       H  0.95308972  0.24775360  0.65357569     0.11100
H1951       H  0.96708612  0.35771172  0.64305519     0.11000
H1952       H  0.94590749  0.37134189  0.67383842     0.11600
H1953       H  0.52130769  0.32012152  0.58772678     0.11600
H1954       H  0.54423062  0.29630445  0.55888193     0.11600
H1955       H  0.00302410  0.19463873  0.57311940     0.11700
H1956       H  0.98031847  0.21842495  0.60188844     0.10600
C1957       C  0.58283756  0.22623022  0.99556074    -0.03300
C1958       C  0.59982149  0.20455758  0.98281269    -0.09000
C1959       C  0.61242867  0.21839815  0.96641588    -0.16700
C1960       C  0.60843495  0.25409257  0.96258996     0.25500
C1961       C  0.59234756  0.27598614  0.97544640    -0.18300
C1962       C  0.57975310  0.26217236  0.99186662    -0.07300
C1963       C  0.61993264  0.26790247  0.94527128    -0.13700
C1964       C  0.62896546  0.27812374  0.93041340    -0.13400
C1965       C  0.63927261  0.28830922  0.91223991     0.25400
C1966       C  0.64112258  0.32367383  0.90729086    -0.18800
C1967       C  0.65048524  0.33319584  0.88950485    -0.07300
C1968       C  0.65825907  0.30743444  0.87643443    -0.03400
C1969       C  0.65635177  0.27199030  0.88159514    -0.08700
C1970       C  0.64696923  0.26256277  0.89932438    -0.16300
H1971       H  0.60282575  0.17684754  0.98545625     0.11800
H1972       H  0.62488354  0.20117274  0.95662120     0.11100
H1973       H  0.58906972  0.30362531  0.97266920     0.11000
H1974       H  0.56671760  0.27933609  0.00148544     0.11600
H1975       H  0.63519234  0.34387787  0.91714825     0.11600
H1976       H  0.65182971  0.36066948  0.88599900     0.11600
H1977       H  0.66136559  0.25144611  0.87180406     0.11700
H1978       H  0.64540931  0.23511541  0.90291342     0.10600
C1979       C  0.52747977  0.17029444  0.99432304    -0.03300
C1980       C  0.52998221  0.13450762  0.99020695    -0.09000
C1981       C  0.51751088  0.12180890  0.97350910    -0.16700
C1982       C  0.00220339  0.14472147  0.96083506     0.25500
C1983       C  0.99928646  0.18034136  0.96496779    -0.18300
C1984       C  0.01169521  0.19304098  0.98163579    -0.07300
C1985       C  0.98951349  0.13190983  0.94356462    -0.13700
C1986       C  0.97882239  0.12252589  0.92886268    -0.13400
C1987       C  0.96634550  0.11301958  0.91098151     0.25400
C1988       C  0.96136741  0.13898012  0.89779812    -0.18800
C1989       C  0.95005735  0.12998308  0.88029654    -0.07300
C1990       C  0.94370521  0.09481132  0.87569127    -0.03400
C1991       C  0.94858131  0.06886703  0.88902381    -0.08700
C1992       C  0.95968790  0.07796193  0.90659808    -0.16300
H1993       H  0.54203992  0.11655799  0.99981310     0.11800
H1994       H  0.51990734  0.09419638  0.97046329     0.11100
H1995       H  0.98742667  0.19830835  0.95529900     0.11000
H1996       H  0.00908340  0.22064526  0.98463601     0.11600
H1997       H  0.96659005  0.16616662  0.90099133     0.11600
H1998       H  0.94716391  0.15044499  0.87020889     0.11600
H1999       H  0.94384503  0.04161798  0.88582029     0.11700
H2000       H  0.96341132  0.05764719  0.91670010     0.10600
C2001       C  0.82133296  0.48561838  0.56175532    -0.03300
C2002       C  0.81836768  0.02065604  0.56723004    -0.09000
C2003       C  0.83185248  0.03122116  0.58410964    -0.16700
C2004       C  0.84868836  0.50691668  0.59551306     0.25500
C2005       C  0.85294469  0.47229643  0.58977278    -0.18300
C2006       C  0.83945800  0.46171266  0.57294999    -0.07300
C2007       C  0.85999483  0.01687060  0.61347255    -0.13700
C2008       C  0.86824328  0.02399348  0.62887677    -0.13400
C2009       C  0.87702396  0.03175869  0.64748781     0.25400
C2010       C  0.88282192  0.00455612  0.65989679    -0.18800
C2011       C  0.89089857  0.01207883  0.67805206    -0.07300
C2012       C  0.89318819  0.04696147  0.68401930    -0.03400
C2013       C  0.88731436  0.07409823  0.67142353    -0.08700
C2014       C  0.87927507  0.06651539  0.65328632    -0.16300
H2015       H  0.80441346  0.03939719  0.55877214     0.11800
H2016       H  0.82839347  0.05807179  0.58844985     0.11100
H2017       H  0.86593942  0.45329970  0.59848095     0.11000
H2018       H  0.84220130  0.43463543  0.56886699     0.11600
H2019       H  0.88096423  0.47754149  0.65555646     0.11600
H2020       H  0.89492186  0.99064943  0.68747022     0.11600
H2021       H  0.88940863  0.10120241  0.67554667     0.11700
H2022       H  0.87484949  0.08775736  0.64378747     0.10600
C2023       C  0.70633105  0.35722843  0.68549725    -0.03300
C2024       C  0.70819841  0.39249340  0.68012171    -0.09000
C2025       C  0.71603566  0.40132484  0.66212240    -0.16700
C2026       C  0.72209634  0.37508899  0.64923583     0.25500
C2027       C  0.72070766  0.33991877  0.65447565    -0.18300
C2028       C  0.71290164  0.33101245  0.67249190    -0.07300
C2029       C  0.72947441  0.38444278  0.63064775    -0.13700
C2030       C  0.73569050  0.39366333  0.61528815    -0.13400
C2031       C  0.74380676  0.40645198  0.59734449     0.25400
C2032       C  0.75460661  0.38336803  0.58364172    -0.18800
C2033       C  0.76456215  0.39625453  0.56656738    -0.07300
C2034       C  0.76388039  0.43238584  0.56305652    -0.03400
C2035       C  0.75154939  0.45520057  0.57665238    -0.08700
C2036       C  0.74191289  0.44233754  0.59373215    -0.16300
H2037       H  0.70377122  0.41325509  0.68986522     0.11800
H2038       H  0.71723055  0.42863929  0.65823940     0.11100
H2039       H  0.72534790  0.31939170  0.64461291     0.11000
H2040       H  0.71126431  0.30362973  0.67615752     0.11600
H2041       H  0.75603093  0.35552317  0.58626930     0.11600
H2042       H  0.77384625  0.37816957  0.55629036     0.11600
H2043       H  0.75007536  0.48307133  0.57415213     0.11700
H2044       H  0.73342844  0.46043437  0.60419388     0.10600
C2045       C  0.68404587  0.06277350  0.18123266    -0.03300
C2046       C  0.69137385  0.08896149  0.16826883    -0.09000
C2047       C  0.70246464  0.08005510  0.15064487    -0.16700
C2048       C  0.70653256  0.04486253  0.14571768     0.25500
C2049       C  0.69888798  0.01870890  0.15845769    -0.18300
C2050       C  0.68773902  0.02752560  0.17602128    -0.07300
C2051       C  0.71908956  0.03521864  0.12779248    -0.13700
C2052       C  0.72968294  0.02500285  0.11318234    -0.13400
C2053       C  0.74205756  0.01068448  0.09609268     0.25400
C2054       C  0.71808949  0.49398593  0.08431289    -0.18800
C2055       C  0.73013645  0.47886477  0.06809996    -0.07300
C2056       C  0.76641929  0.47991723  0.06352033    -0.03400
C2057       C  0.79031381  0.99705045  0.07527250    -0.08700
C2058       C  0.77820738  0.01231219  0.09144867    -0.16300
H2059       H  0.68865555  0.11632184  0.17178582     0.11800
H2060       H  0.70819613  0.10061240  0.14093837     0.11100
H2061       H  0.70203180  0.49139511  0.15489351     0.11000
H2062       H  0.68306890  0.00669439  0.18570569     0.11600
H2063       H  0.69010380  0.49237438  0.08773930     0.11600
H2064       H  0.71126054  0.46578032  0.05926685     0.11600
H2065       H  0.81833994  0.99850857  0.07192795     0.11700
H2066       H  0.79708539  0.02510306  0.10040185     0.10600
C2067       C  0.58012018  0.18538096  0.49698761    -0.03300
C2068       C  0.57726334  0.14949752  0.49315971    -0.09000
C2069       C  0.58716102  0.13662025  0.47607513    -0.16700
C2070       C  0.60012744  0.15948734  0.46273714     0.25500
C2071       C  0.60449828  0.19497679  0.46678506    -0.18300
C2072       C  0.59485545  0.20780323  0.48384827    -0.07300
C2073       C  0.60756787  0.14714164  0.44463952    -0.13700
C2074       C  0.61324055  0.13871234  0.42910548    -0.13400
C2075       C  0.62019456  0.13023410  0.41035991     0.25400
C2076       C  0.65512212  0.13076633  0.40381784    -0.18800
C2077       C  0.66204350  0.12289420  0.38560655    -0.07300
C2078       C  0.63406542  0.11445682  0.37360812    -0.03400
C2079       C  0.59896323  0.11419677  0.38029872    -0.08700
C2080       C  0.59211090  0.12203407  0.39855254    -0.16300
H2081       H  0.56605365  0.13176717  0.50311123     0.11800
H2082       H  0.58380705  0.10906831  0.47311017     0.11100
H2083       H  0.61464533  0.21288727  0.45661480     0.11000
H2084       H  0.59781125  0.23546499  0.48662046     0.11600
H2085       H  0.67706272  0.13712062  0.41282052     0.11600
H2086       H  0.68940324  0.12276704  0.38101240     0.11600
H2087       H  0.57678819  0.10822460  0.37139321     0.11700
H2088       H  0.56492226  0.12177713  0.40343923     0.10600
C2089       C  0.81447468  0.48796578  0.49442692    -0.03300
C2090       C  0.83154952  0.46574262  0.48198802    -0.09000
C2091       C  0.84477847  0.47897390  0.46560428    -0.16700
C2092       C  0.84123843  0.51457848  0.46148281     0.25500
C2093       C  0.82439046  0.03690721  0.47387271    -0.18300
C2094       C  0.81121160  0.02370324  0.49030068    -0.07300
C2095       C  0.85479373  0.02797676  0.44450426    -0.13700
C2096       C  0.86605879  0.03779126  0.42999657    -0.13400
C2097       C  0.87895507  0.04745420  0.41221665     0.25400
C2098       C  0.88462665  0.08262625  0.40768307    -0.18800
C2099       C  0.89573097  0.09176164  0.39011865    -0.07300
C2100       C  0.90154801  0.06576301  0.37692901    -0.03400
C2101       C  0.89629626  0.03049609  0.38172528    -0.08700
C2102       C  0.88504213  0.02145903  0.39920999    -0.16300
H2103       H  0.83470752  0.43818875  0.48500542     0.11800
H2104       H  0.85779071  0.46143737  0.45615385     0.11100
H2105       H  0.82142937  0.06447978  0.47083465     0.11000
H2106       H  0.79814305  0.04124514  0.49972208     0.11600
H2107       H  0.88003798  0.10299274  0.41763825     0.11600
H2108       H  0.89961154  0.11909234  0.38679833     0.11600
H2109       H  0.89986144  0.00993028  0.37177592     0.11700
H2110       H  0.88058827  0.49418229  0.40250410     0.10600
C2111       C  0.57703438  0.22529088  0.06322071    -0.03300
C2112       C  0.59213073  0.20272473  0.07621546    -0.09000
C2113       C  0.60138946  0.21520882  0.09345217    -0.16700
C2114       C  0.59584294  0.25040532  0.09786169     0.25500
C2115       C  0.58160851  0.27320979  0.08481544    -0.18300
C2116       C  0.57236956  0.26074765  0.06754204    -0.07300
C2117       C  0.60392001  0.26277549  0.11591576    -0.13700
C2118       C  0.61025945  0.27197823  0.13128388    -0.13400
C2119       C  0.61768548  0.28140362  0.14988618     0.25400
C2120       C  0.62073632  0.31658677  0.15493978    -0.18800
C2121       C  0.62820591  0.32549286  0.17302072    -0.07300
C2122       C  0.63287173  0.29925826  0.18625280    -0.03400
C2123       C  0.62954769  0.26402050  0.18104483    -0.08700
C2124       C  0.62195903  0.25519280  0.16300314    -0.16300
H2125       H  0.59605020  0.17531206  0.07310716     0.11800
H2126       H  0.61238945  0.19731605  0.10341901     0.11100
H2127       H  0.57713743  0.30047200  0.08808745     0.11000
H2128       H  0.56055067  0.27846536  0.05774456     0.11600
H2129       H  0.61753151  0.33710496  0.14490093     0.11600
H2130       H  0.63100268  0.35282806  0.17659127     0.11600
H2131       H  0.63259936  0.24329168  0.19096914     0.11700
H2132       H  0.61951078  0.22788728  0.15927449     0.10600
C2133       C  0.51998530  0.17239917  0.06186732    -0.03300
C2134       C  0.02336838  0.13757552  0.06769308    -0.09000
C2135       C  0.01030872  0.12741817  0.08474216    -0.16700
C2136       C  0.99350890  0.15190895  0.09602503     0.25500
C2137       C  0.98881812  0.18628790  0.08992770    -0.18300
C2138       C  0.50182357  0.19643806  0.07293190    -0.07300
C2139       C  0.98246323  0.14238198  0.11415097    -0.13700
C2140       C  0.97414479  0.13554554  0.12961328    -0.13400
C2141       C  0.96502998  0.12792087  0.14825957     0.25400
C2142       C  0.95813517  0.15516194  0.16048523    -0.18800
C2143       C  0.94984272  0.14777334  0.17864771    -0.07300
C2144       C  0.94840860  0.11296875  0.18486097    -0.03400
C2145       C  0.95519920  0.08579090  0.17242180    -0.08700
C2146       C  0.96347563  0.09323749  0.15428614    -0.16300
H2147       H  0.03734735  0.11869525  0.05937932     0.11800
H2148       H  0.01408392  0.10072990  0.08930376     0.11100
H2149       H  0.97582886  0.20546436  0.09848541     0.11000
H2150       H  0.49871949  0.22335783  0.06861939     0.11600
H2151       H  0.95936720  0.18213418  0.15600633     0.11600
H2152       H  0.94510366  0.16929524  0.18789182     0.11600
H2153       H  0.95372538  0.05870933  0.17666316     0.11700
H2154       H  0.96867042  0.07191838  0.14496450     0.10600
C2155       C  0.75977203  0.43136848  0.49545722    -0.03300
C2156       C  0.74236552  0.45287925  0.48275206    -0.09000
C2157       C  0.72936205  0.43881888  0.46649897    -0.16700
C2158       C  0.73343339  0.40310925  0.46283281     0.25500
C2159       C  0.75009406  0.38140574  0.47562142    -0.18300
C2160       C  0.76308522  0.39543450  0.49189320    -0.07300
C2161       C  0.72133585  0.38898355  0.44575438    -0.13700
C2162       C  0.71197478  0.37788346  0.43115380    -0.13400
C2163       C  0.70172569  0.36572745  0.41335751     0.25400
C2164       C  0.66591049  0.36603899  0.40804367    -0.18800
C2165       C  0.65621848  0.35583382  0.39042925    -0.07300
C2166       C  0.68228174  0.34520780  0.37786781    -0.03400
C2167       C  0.71818381  0.34453152  0.38348142    -0.08700
C2168       C  0.72777746  0.35467313  0.40108226    -0.16300
H2169       H  0.73916799  0.48057278  0.48536129     0.11800
H2170       H  0.71645000  0.45584093  0.45672090     0.11100
H2171       H  0.75340771  0.35374986  0.47292246     0.11000
H2172       H  0.77642227  0.37844294  0.50153268     0.11600
H2173       H  0.64551330  0.37456481  0.41744263     0.11600
H2174       H  0.62837355  0.35641391  0.38661139     0.11600
H2175       H  0.73906174  0.33724487  0.37409335     0.11700
H2176       H  0.75560586  0.35451703  0.40500074     0.10600
C2177       C  0.82041770  0.42248418  0.06387244    -0.03300
C2178       C  0.85718521  0.42308952  0.06741848    -0.09000
C2179       C  0.87058577  0.40987574  0.08382192    -0.16700
C2180       C  0.84740156  0.39568930  0.09677564     0.25500
C2181       C  0.81078032  0.39460964  0.09320167    -0.18300
C2182       C  0.79736404  0.40783397  0.07683358    -0.07300
C2183       C  0.86094921  0.38272350  0.11385840    -0.13700
C2184       C  0.87099591  0.37238594  0.12851433    -0.13400
C2185       C  0.88113798  0.36092196  0.14647886     0.25400
C2186       C  0.85481916  0.35172459  0.15902819    -0.18800
C2187       C  0.86418414  0.34226158  0.17676374    -0.07300
C2188       C  0.90013480  0.34175866  0.18225824    -0.03400
C2189       C  0.92648849  0.35047994  0.16944225    -0.08700
C2190       C  0.91702150  0.36001338  0.15167802    -0.16300
H2191       H  0.87539877  0.43424466  0.05759902     0.11800
H2192       H  0.89896007  0.41089415  0.08644084     0.11100
H2193       H  0.79258190  0.38364796  0.10309499     0.11000
H2194       H  0.76898674  0.40666043  0.07426360     0.11600
H2195       H  0.82695227  0.35252805  0.15520734     0.11600
H2196       H  0.84312917  0.33650863  0.18634088     0.11600
H2197       H  0.95437750  0.35017182  0.17318995     0.11700
H2198       H  0.93764440  0.36709542  0.14208007     0.10600
C2199       C  0.95608907  0.29788991  0.37233701    -0.03300
C2200       C  0.95832101  0.26314428  0.37858049    -0.09000
C2201       C  0.96776965  0.25597309  0.39664072    -0.16700
C2202       C  0.97507395  0.28337077  0.40872972     0.25500
C2203       C  0.97324210  0.31797896  0.40260149    -0.18300
C2204       C  0.96382962  0.32520928  0.38456540    -0.07300
C2205       C  0.98408836  0.27599013  0.42744137    -0.13700
C2206       C  0.99158559  0.26923426  0.44304399    -0.13400
C2207       C  0.00101893  0.25969179  0.46143352     0.25400
C2208       C  0.51702019  0.28409084  0.47310645    -0.18800
C2209       C  0.52818000  0.27397815  0.49053824    -0.07300
C2210       C  0.52371491  0.23927533  0.49637539    -0.03400
C2211       C  0.00641975  0.21531467  0.48486103    -0.08700
C2212       C  0.99527202  0.22543776  0.46748664    -0.16300
H2213       H  0.95291630  0.24152294  0.36948075     0.11800
H2214       H  0.96922112  0.22905640  0.40119416     0.11100
H2215       H  0.97875476  0.33941937  0.41181337     0.11000
H2216       H  0.96183268  0.35224816  0.38030433     0.11600
H2217       H  0.52158663  0.31068388  0.46859114     0.11600
H2218       H  0.54156473  0.29278724  0.49918179     0.11600
H2219       H  0.00255854  0.18847710  0.48914778     0.11700
H2220       H  0.98285678  0.20633807  0.45863129     0.10600
C2221       C  0.94477742  0.80582954  0.35334149     0.03200
C2222       C  0.91665642  0.78721610  0.34518519    -0.12900
C2223       C  0.90418750  0.79629814  0.32776847     0.00700
C2224       C  0.92031925  0.82410048  0.31840589    -0.11400
C2225       C  0.94864475  0.84273893  0.32622731     0.03200
C2226       C  0.96089859  0.83322944  0.34360864    -0.10900
H2227       H  0.90360220  0.76657419  0.35272083     0.08800
H2228       H  0.91069671  0.83122816  0.30501965     0.06300
H2229       H  0.98282434  0.84746423  0.34969505     0.06200
C2230       C  0.90952216  0.83469297  0.20160781     0.03200
C2231       C  0.93516951  0.85542350  0.21052592    -0.12900
C2232       C  0.93957929  0.85331787  0.22944669     0.00700
C2233       C  0.91865174  0.82988625  0.23947285    -0.11400
C2234       C  0.89416699  0.80786125  0.23072390     0.03200
C2235       C  0.89009135  0.81001009  0.21178300    -0.10900
H2236       H  0.94971325  0.87514447  0.20300885     0.08800
H2237       H  0.92127291  0.82900820  0.25415362     0.06300
H2238       H  0.87041454  0.79373762  0.20509776     0.06200
C2239       C  0.67269069  0.83692998  0.35866977     0.03200
C2240       C  0.64767132  0.85757819  0.34920957    -0.12900
C2241       C  0.64296177  0.85374165  0.33035523     0.00700
C2242       C  0.66334699  0.82887443  0.32095105    -0.11400
C2243       C  0.68689885  0.80671526  0.33034288     0.03200
C2244       C  0.69107195  0.81057545  0.34919101    -0.10900
H2245       H  0.63365198  0.87829667  0.35622796     0.08800
H2246       H  0.66076441  0.82665468  0.30630791     0.06300
H2247       H  0.71007644  0.79422970  0.35632499     0.06200
C2248       C  0.93979870  0.60488831  0.20418739     0.03200
C2249       C  0.91298075  0.62334770  0.21335774    -0.12900
C2250       C  0.90356273  0.61466338  0.23131120     0.00700
C2251       C  0.92140451  0.58709941  0.24015390    -0.11400
C2252       C  0.94880718  0.56879609  0.23130786     0.03200
C2253       C  0.95783796  0.57800767  0.21339113    -0.10900
H2254       H  0.89861120  0.64369258  0.20622009     0.08800
H2255       H  0.91421219  0.58012089  0.25395133     0.06300
H2256       H  0.97880919  0.56404787  0.20643309     0.06200
C2257       C  0.96484835  0.87279423  0.31662252     0.42600
N2258       N  0.49847054  0.91687984  0.31118176     0.01400
C2259       C  0.50008394  0.52216265  0.23430486    -0.06400
H2260       H  0.51094236  0.88953789  0.22055816     0.06900
C2261       C  0.62836146  0.89165458  0.25835558    -0.06800
Co2262     Co  0.97566893  0.95665438  0.27792787     0.74200
N2263       N  0.50289205  0.91953825  0.24512133    -0.26000
Co2264     Co  0.54354134  0.95686062  0.24600838     0.74100
C2265       C  0.61649589  0.87488302  0.24153966     0.42700
N2266       N  0.60335015  0.91766809  0.30134046     0.01100
N2267       N  0.58234355  0.91820098  0.24737782     0.01200
N2268       N  0.95581032  0.52182970  0.25515089    -0.46800
H2269       H  0.92986440  0.88451621  0.29146977     0.06900
N2270       N  0.47759904  0.91914823  0.25753671     0.01500
N2271       N  0.58430144  0.99415046  0.24716964     0.01200
C2272       C  0.62308544  0.53310809  0.24010638     0.42800
N2273       N  0.57803460  0.91778529  0.31374963    -0.25400
C2274       C  0.95119330  0.51952201  0.30128290    -0.06300
N2275       N  0.49338202  0.89078958  0.32272279    -0.46500
N2276       N  0.59338016  0.51661514  0.23419634    -0.46700
C2277       C  0.96149339  0.53462466  0.31870410     0.42600
N2278       N  0.47863448  0.99585741  0.25794357     0.01400
N2279       N  0.57661107  0.99351516  0.31374030    -0.25400
N2280       N  0.97478638  0.91746483  0.29788025    -0.25900
N2281       N  0.60241871  0.99427484  0.30158412     0.01100
H2282       H  0.56461058  0.52504485  0.33720526     0.07000
H2283       H  0.65553778  0.52252727  0.26610237     0.07000
N2284       N  0.50463891  0.99554062  0.24588419    -0.26000
N2285       N  0.60570949  0.91814456  0.26083101    -0.25600
N2286       N  0.49749291  0.99308909  0.31212301     0.01400
C2287       C  0.96279809  0.87830801  0.23907177     0.42800
C2288       C  0.58584822  0.89354544  0.32638867    -0.06800
N2289       N  0.60700732  0.99412680  0.26089909    -0.25600
H2290       H  0.65082270  0.88572827  0.26704206     0.07000
N2291       N  0.95309649  0.89501348  0.25441111    -0.46800
H2292       H  0.57093552  0.88871903  0.33870414     0.07000
C2293       C  0.61369611  0.53714101  0.31949508     0.42700
C2294       C  0.95235222  0.89048584  0.30013263    -0.06300
Co2295     Co  0.53753050  0.95524345  0.31306199     0.73800
N2296       N  0.62849092  0.89422631  0.30474303    -0.46500
C2297       C  0.96771026  0.53963505  0.24045172     0.42900
N2298       N  0.49008722  0.51663914  0.32480700    -0.46500
Co2299     Co  0.60524756  0.95612609  0.28119591     0.73900
C2300       C  0.63215005  0.51822332  0.25778952    -0.06800
C2301       C  0.49564721  0.89475796  0.23270062    -0.06400
N2302       N  0.97473242  0.99388709  0.29844001    -0.25900
N2303       N  0.58795850  0.89287709  0.23542406    -0.46700
H2304       H  0.51713668  0.52800584  0.22287501     0.07000
C2305       C  0.58145028  0.51954769  0.32564926    -0.06800
Cl2306     Cl  0.54052058  0.95624119  0.27954340    -0.49800
C2307       C  0.61915263  0.87768091  0.32023367     0.42700
H2308       H  0.92840924  0.52531041  0.29277689     0.06900
N2309       N  0.62528230  0.52003883  0.30454156    -0.46500
C2310       C  0.64189968  0.80844594  0.20534277     0.03200
C2311       C  0.62445407  0.83621269  0.21420802    -0.12900
C2312       C  0.63348910  0.84513380  0.23216333     0.00700
C2313       C  0.65984161  0.82598272  0.24122069    -0.11400
C2314       C  0.67791179  0.79870108  0.23257751     0.03200
C2315       C  0.66861415  0.78977443  0.21468276    -0.10900
H2316       H  0.60392016  0.85080406  0.20714751     0.08800
H2317       H  0.66638101  0.83241591  0.25512555     0.06300
H2318       H  0.68283772  0.76896947  0.20783803     0.06200
C2319       C  0.91078117  0.57507682  0.35788351     0.03200
C2320       C  0.93590017  0.55501450  0.34824162    -0.12900
C2321       C  0.93998698  0.55932711  0.32942291     0.00700
C2322       C  0.91965147  0.58451488  0.32032687    -0.11400
C2323       C  0.89511109  0.60527617  0.32971446     0.03200
C2324       C  0.89118509  0.60097206  0.34857618    -0.10900
H2325       H  0.95068235  0.53463697  0.35518283     0.08800
H2326       H  0.92218006  0.58724042  0.30571013     0.06300
H2327       H  0.87082108  0.61561930  0.35567930     0.06200
C2328       C  0.64174234  0.60505905  0.35436523     0.03200
C2329       C  0.66853697  0.62262641  0.34463393    -0.12900
C2330       C  0.67774161  0.61216526  0.32695351     0.00700
C2331       C  0.65941321  0.58428470  0.31882960    -0.11400
C2332       C  0.63217376  0.56688293  0.32815964     0.03200
C2333       C  0.62343785  0.57740097  0.34590173    -0.10900
H2334       H  0.68253272  0.64425673  0.35091636     0.08800
H2335       H  0.66619686  0.57608697  0.30518478     0.06300
H2336       H  0.60332237  0.56323037  0.35341020     0.06200
C2337       C  0.67501738  0.57185299  0.20044805     0.03200
C2338       C  0.65016652  0.55169893  0.21034920    -0.12900
C2339       C  0.64593850  0.55658457  0.22918227     0.00700
C2340       C  0.66634033  0.58208674  0.23806088    -0.11400
C2341       C  0.68997657  0.60339880  0.22836689     0.03200
C2342       C  0.69396396  0.59848939  0.20955015    -0.10900
H2343       H  0.63530751  0.53118215  0.20358283     0.08800
H2344       H  0.66396068  0.58528869  0.25266000     0.06300
H2345       H  0.71378657  0.61361148  0.20231013     0.06200
C2346       C  0.87026863  0.78551181  0.24160337     0.42600
N2347       N  0.82897290  0.74869474  0.24794327     0.01400
C2348       C  0.72632843  0.74976966  0.32659480    -0.06400
H2349       H  0.86202946  0.72949240  0.33742850     0.06900
C2350       C  0.85489227  0.61773125  0.30162553    -0.06800
Co2351     Co  0.79022648  0.76916250  0.28172867     0.74200
N2352       N  0.82880711  0.74120460  0.31426143    -0.26000
Co2353     Co  0.78982838  0.70255094  0.31359836     0.74100
C2354       C  0.87027950  0.62720878  0.31913701     0.42700
N2355       N  0.83072880  0.64520788  0.25831947     0.01100
N2356       N  0.82845211  0.66324897  0.31260406     0.01200
N2357       N  0.72711396  0.79149141  0.30482144    -0.46800
H2358       H  0.85916855  0.81749238  0.26746487     0.06900
N2359       N  0.82913480  0.76656481  0.30207333     0.01500
N2360       N  0.75097079  0.66390849  0.31168516     0.01200
C2361       C  0.70717536  0.62964368  0.31723487     0.42800
N2362       N  0.83027242  0.67070035  0.24620015    -0.25400
C2363       C  0.72463129  0.79219113  0.25900368    -0.06300
N2364       N  0.85287734  0.75691879  0.23539703    -0.46500
N2365       N  0.72498152  0.65793464  0.32341770    -0.46700
C2366       C  0.70734732  0.78088299  0.24219218     0.42600
N2367       N  0.75118976  0.76696868  0.30168285     0.01400
N2368       N  0.75318874  0.66868524  0.24533040    -0.25400
N2369       N  0.82892336  0.77090021  0.26166304    -0.25900
N2370       N  0.75286077  0.64387027  0.25780748     0.01100
H2371       H  0.72463371  0.67502699  0.21996661     0.07000
H2372       H  0.71929103  0.59608703  0.29189667     0.07000
N2373       N  0.75136213  0.74218447  0.31416831    -0.26000
N2374       N  0.82910459  0.64117864  0.29882179    -0.25600
N2375       N  0.75137023  0.74698799  0.24791620     0.01400
C2376       C  0.87352829  0.77781746  0.31953978     0.42800
C2377       C  0.85690514  0.66583664  0.23441156    -0.06800
N2378       N  0.75161836  0.64097426  0.29826214    -0.25600
H2379       H  0.86039446  0.59538356  0.29307153     0.07000
N2380       N  0.85543624  0.78905769  0.30474600    -0.46800
H2381       H  0.86253821  0.68231222  0.22281347     0.07000
C2382       C  0.71332888  0.62762145  0.23848383     0.42700
C2383       C  0.85433708  0.79488206  0.25897827    -0.06300
Co2384     Co  0.79088603  0.70888006  0.24646177     0.73800
N2385       N  0.85673297  0.62245027  0.25538611    -0.46500
C2386       C  0.70998106  0.78235126  0.32018751     0.42900
N2387       N  0.72551702  0.75284136  0.23598679    -0.46500
Co2388     Co  0.79111145  0.64217750  0.27830072     0.73900
C2389       C  0.72484130  0.61827036  0.30056068    -0.06800
C2390       C  0.85583597  0.74606778  0.32593036    -0.06400
N2391       N  0.75150681  0.76978509  0.26139711    -0.25900
N2392       N  0.85225403  0.65537001  0.32534358    -0.46700
H2393       H  0.72127802  0.73517082  0.33892710     0.07000
C2394       C  0.72919647  0.66056095  0.23239963    -0.06800
Cl2395     Cl  0.79048403  0.70567566  0.28002086    -0.49800
C2396       C  0.87448571  0.63382578  0.24052882     0.42700
H2397       H  0.71886764  0.81420347  0.26772755     0.06900
N2398       N  0.72957404  0.61884363  0.25420357    -0.46500
C2399       C  0.80037135  0.97394356  0.51180713     0.02400
C2400       C  0.77515713  0.94639867  0.51229768     0.02300
C2401       C  0.76400108  0.93305669  0.52914255    -0.18200
C2402       C  0.77748096  0.94643879  0.54552634     0.02400
C2403       C  0.80345593  0.97328572  0.54498321     0.02300
C2404       C  0.81395147  0.98725170  0.52819359    -0.18200
H2405       H  0.83401537  0.00763629  0.52784861     0.04400
H2406       H  0.74411628  0.91250846  0.52949585     0.04400
C2407       C  0.56392714  0.71130173  0.04562352     0.02400
C2408       C  0.53786823  0.68458808  0.04501705     0.02300
C2409       C  0.52753109  0.67071805  0.02815098    -0.18200
C2410       C  0.54151417  0.68397687  0.01181213     0.02400
C2411       C  0.56707065  0.71127913  0.01240308     0.02300
C2412       C  0.57789959  0.72459273  0.02933682    -0.18200
H2413       H  0.59782132  0.74509304  0.02986238     0.04400
H2414       H  0.00731720  0.65048863  0.02769749     0.04400
C2415       C  0.53971818  0.72713918  0.51377227     0.02400
C2416       C  0.56534268  0.69995752  0.51409443     0.02300
C2417       C  0.57741747  0.68695133  0.53086354    -0.18200
C2418       C  0.56531189  0.70108456  0.54735948     0.02400
C2419       C  0.54045229  0.72895388  0.54700319     0.02300
C2420       C  0.52817756  0.74182476  0.53021493    -0.18200
H2421       H  0.00844198  0.76250869  0.52996714     0.04400
H2422       H  0.59699584  0.66612341  0.53107445     0.04400
C2423       C  0.80608138  0.93698548  0.04661995     0.02400
C2424       C  0.77927584  0.96309778  0.04648717     0.02300
C2425       C  0.76487998  0.97401606  0.02977273    -0.18200
C2426       C  0.77713992  0.96014796  0.01324992     0.02400
C2427       C  0.80507631  0.93525769  0.01332185     0.02300
C2428       C  0.81882035  0.92362523  0.03003132    -0.18200
H2429       H  0.83968665  0.90404153  0.03012528     0.04400
H2430       H  0.74404524  0.49363446  0.02960573     0.04400
C2431       C  0.89905815  0.84988871  0.85385301     0.03200
C2432       C  0.92605613  0.86926449  0.84522001    -0.12900
C2433       C  0.93638936  0.86161101  0.82731291     0.00700
C2434       C  0.91931675  0.83444720  0.81790502    -0.11400
C2435       C  0.89221828  0.81487149  0.82616422     0.03200
C2436       C  0.88203510  0.82291787  0.84408791    -0.10900
H2437       H  0.93997413  0.88943421  0.85271285     0.08800
H2438       H  0.92729334  0.82853949  0.80410686     0.06300
H2439       H  0.86100444  0.80799120  0.85049298     0.06200
C2440       C  0.93400811  0.58542599  0.85673326     0.03200
C2441       C  0.90868932  0.60545650  0.84715990    -0.12900
C2442       C  0.90381837  0.60068292  0.82841835     0.00700
C2443       C  0.92377100  0.57530782  0.81932000    -0.11400
C2444       C  0.94844116  0.55454175  0.82867880     0.03200
C2445       C  0.95308341  0.55920399  0.84747499    -0.10900
H2446       H  0.89426380  0.62603837  0.85408810     0.08800
H2447       H  0.92069584  0.57229865  0.80473930     0.06300
H2448       H  0.97351842  0.54449513  0.85455229     0.06200
C2449       C  0.70258252  0.54899079  0.85249679     0.03200
C2450       C  0.72087181  0.57667409  0.84408130    -0.12900
C2451       C  0.71130145  0.58799267  0.82656628     0.00700
C2452       C  0.68352317  0.57101917  0.81734972    -0.11400
C2453       C  0.66525936  0.54305564  0.82545317     0.03200
C2454       C  0.67503134  0.53211623  0.84297879    -0.10900
H2455       H  0.74219990  0.58966804  0.85132807     0.08800
H2456       H  0.67615331  0.57973591  0.80385196     0.06300
H2457       H  0.66027673  0.51126044  0.84949742     0.06200
C2458       C  0.66698570  0.81700684  0.85729242     0.03200
C2459       C  0.64755350  0.84315609  0.84810183    -0.12900
C2460       C  0.65184531  0.84826898  0.82929457     0.00700
C2461       C  0.67608036  0.82727663  0.81969578    -0.11400
C2462       C  0.69714189  0.80255489  0.82885509     0.03200
C2463       C  0.69270405  0.79780738  0.84762800    -0.10900
H2464       H  0.62731242  0.85782305  0.85527618     0.08800
H2465       H  0.67868232  0.83030492  0.80509573     0.06300
H2466       H  0.70818039  0.77794385  0.85457260     0.06200
C2467       C  0.66808859  0.58287782  0.70001991     0.03200
C2468       C  0.69334659  0.60267163  0.70981120    -0.12900
C2469       C  0.69753831  0.59788149  0.72865604     0.00700
C2470       C  0.67702304  0.57249091  0.73756302    -0.11400
C2471       C  0.65312426  0.55137232  0.72786406     0.03200
C2472       C  0.64900673  0.55640027  0.70908464    -0.10900
H2473       H  0.70756765  0.62366787  0.70309889     0.08800
H2474       H  0.67931416  0.56941955  0.75218038     0.06300
H2475       H  0.62936560  0.54117286  0.70172980     0.06200
C2476       C  0.90202144  0.55514382  0.70324764     0.03200
C2477       C  0.88420849  0.58209567  0.71238208    -0.12900
C2478       C  0.89346352  0.59127987  0.73027645     0.00700
C2479       C  0.92098305  0.57298703  0.73911861    -0.11400
C2480       C  0.93854723  0.54531185  0.73028318     0.03200
C2481       C  0.92887010  0.53664550  0.71237302    -0.10900
H2482       H  0.86321792  0.59606955  0.70538335     0.08800
H2483       H  0.92833849  0.57992335  0.75291139     0.06300
H2484       H  0.94300480  0.51622054  0.70522249     0.06200
C2485       C  0.87540683  0.78539367  0.81628434     0.42600
N2486       N  0.84180583  0.74142171  0.81045543     0.01400
C2487       C  0.84153994  0.63693474  0.73332145    -0.06400
H2488       H  0.82702719  0.76929978  0.71982906     0.06900
C2489       C  0.71056324  0.76413509  0.75739707    -0.06800
Co2490     Co  0.86490724  0.70255713  0.77702139     0.74200
N2491       N  0.83628042  0.73924849  0.74429722    -0.26000
Co2492     Co  0.79673536  0.70089338  0.74511651     0.74100
C2493       C  0.72207044  0.78122427  0.74062268     0.42700
N2494       N  0.73692315  0.73865871  0.80024952     0.01100
N2495       N  0.75704402  0.73853024  0.74645487     0.01200
N2496       N  0.88607734  0.63806650  0.75413196    -0.46800
H2497       H  0.91006081  0.77462462  0.79098138     0.06900
N2498       N  0.86166798  0.74021749  0.75671361     0.01500
N2499       N  0.75707773  0.66250466  0.74632339     0.01200
C2500       C  0.71985242  0.62190980  0.73954524     0.42800
N2501       N  0.76238852  0.73906653  0.81263412    -0.25400
C2502       C  0.89129924  0.64024044  0.80030987    -0.06300
N2503       N  0.84707623  0.76701853  0.82229416    -0.46500
N2504       N  0.74883451  0.63938636  0.73351997    -0.46700
C2505       C  0.88162975  0.62491050  0.81774734     0.42600
N2506       N  0.86270129  0.66350865  0.75697464     0.01400
N2507       N  0.76517120  0.66308595  0.81270087    -0.25400
N2508       N  0.86524407  0.74146954  0.79709622    -0.25900
N2509       N  0.73927483  0.66199168  0.80054599     0.01100
H2510       H  0.77825865  0.63102744  0.83587919     0.07000
H2511       H  0.68716739  0.63187477  0.76545018     0.07000
N2512       N  0.83655228  0.66331737  0.74494265    -0.26000
N2513       N  0.73376423  0.73806472  0.75987467    -0.25600
N2514       N  0.84433722  0.66533501  0.81115512     0.01400
C2515       C  0.87497727  0.78172997  0.73836922     0.42800
C2516       C  0.75476971  0.76386590  0.82494484    -0.06800
N2517       N  0.73445422  0.66202033  0.76002507    -0.25600
H2518       H  0.68808217  0.76966821  0.76608287     0.07000
N2519       N  0.88538124  0.76509359  0.75364595    -0.46800
H2520       H  0.76997538  0.76938657  0.83711869     0.07000
C2521       C  0.72930236  0.61821696  0.81807369     0.42700
C2522       C  0.88757862  0.76843940  0.79955879    -0.06300
Co2523     Co  0.80347169  0.70227582  0.81212859     0.73800
N2524       N  0.71181481  0.76221854  0.80337859    -0.46500
C2525       C  0.87436131  0.62016693  0.73941339     0.42900
N2526       N  0.85257997  0.64204132  0.82386054    -0.46500
Co2527     Co  0.73542604  0.70011371  0.78022487     0.73900
C2528       C  0.71024946  0.63693702  0.75708228    -0.06800
C2529       C  0.84260991  0.76438607  0.73195097    -0.06400
N2530       N  0.86698101  0.66518392  0.79746415    -0.25900
N2531       N  0.75092250  0.76382330  0.73453676    -0.46700
H2532       H  0.82442789  0.63079390  0.72192033     0.07000
C2533       C  0.76112317  0.63651266  0.82439273    -0.06800
Cl2534     Cl  0.80013477  0.70143399  0.77862104    -0.49800
C2535       C  0.72140515  0.77947507  0.81862030     0.42700
H2536       H  0.91419766  0.63513799  0.79182276     0.06900
N2537       N  0.71715712  0.63554061  0.80327931    -0.46500
C2538       C  0.92787106  0.82476637  0.70077473     0.03200
C2539       C  0.94763998  0.84937232  0.71083936    -0.12900
C2540       C  0.94337414  0.85207555  0.72973570     0.00700
C2541       C  0.91868276  0.83045106  0.73855166    -0.11400
C2542       C  0.89772746  0.80686247  0.72863238     0.03200
C2543       C  0.90196643  0.80451521  0.70973698    -0.10900
H2544       H  0.96835770  0.86443272  0.70424634     0.08800
H2545       H  0.91611601  0.83157188  0.75322393     0.06300
H2546       H  0.88658271  0.78544040  0.70218011     0.06200
C2547       C  0.69685369  0.84787333  0.70449581     0.03200
C2548       C  0.66959104  0.86605038  0.71360556    -0.12900
C2549       C  0.65985244  0.85673509  0.73137304     0.00700
C2550       C  0.67777273  0.82934428  0.74007051    -0.11400
C2551       C  0.70476183  0.81081289  0.73124737     0.03200
C2552       C  0.71440723  0.82028391  0.71348447    -0.10900
H2553       H  0.65532994  0.88680960  0.70669838     0.08800
H2554       H  0.67076092  0.82245740  0.75384539     0.06300
H2555       H  0.73552095  0.80619868  0.70665764     0.06200
C2556       C  0.96768094  0.87406326  0.74058526     0.42600
N2557       N  0.50995504  0.90985755  0.74684496     0.01400
C2558       C  0.61306437  0.90577322  0.82565446    -0.06400
H2559       H  0.97874595  0.92858105  0.83658685     0.06900
C2560       C  0.98784939  0.54113392  0.80056054    -0.06800
Co2561     Co  0.54863861  0.88826387  0.78059061     0.74200
N2562       N  0.51105205  0.91688064  0.81315861    -0.26000
Co2563     Co  0.55091047  0.95470896  0.81250255     0.74100
C2564       C  0.97254331  0.53203548  0.81810136     0.42700
N2565       N  0.51091129  0.51324139  0.75725514     0.01100
N2566       N  0.51321466  0.49490042  0.81150709     0.01200
N2567       N  0.61131175  0.86423197  0.80381581    -0.46800
H2568       H  0.97837978  0.84175588  0.76641946     0.06900
N2569       N  0.51005254  0.89164043  0.80092846     0.01500
N2570       N  0.59066698  0.49256759  0.81055838     0.01200
C2571       C  0.63515816  0.52613492  0.81595386     0.42800
N2572       N  0.51069266  0.48781518  0.74512247    -0.25400
C2573       C  0.61317592  0.86362282  0.75769894    -0.06300
N2574       N  0.98567559  0.90223787  0.73433081    -0.46500
N2575       N  0.61698903  0.49811242  0.82222029    -0.46700
C2576       C  0.63041267  0.87459843  0.74085014     0.42600
N2577       N  0.58793077  0.88941058  0.80059171     0.01400
N2578       N  0.58782315  0.48788419  0.74434513    -0.25400
N2579       N  0.50966299  0.88761093  0.76056213    -0.25900
N2580       N  0.58874964  0.51262289  0.75683481     0.01100
H2581       H  0.61678110  0.48065189  0.71924349     0.07000
H2582       H  0.62316771  0.55985595  0.79063326     0.07000
N2583       N  0.58837943  0.91412748  0.81310513    -0.26000
N2584       N  0.51291975  0.51700969  0.79772042    -0.25600
N2585       N  0.58749133  0.90960108  0.74673464     0.01400
C2586       C  0.96607725  0.88067195  0.81860632     0.42800
C2587       C  0.98413899  0.49333900  0.73332333    -0.06800
N2588       N  0.59023484  0.51553171  0.79713496    -0.25600
H2589       H  0.98286447  0.56367554  0.79203247     0.07000
N2590       N  0.98361848  0.86938666  0.80370970    -0.46800
H2591       H  0.97803657  0.47701822  0.72172598     0.07000
C2592       C  0.62928730  0.52759729  0.73789251     0.42700
C2593       C  0.98362536  0.86427415  0.75792731    -0.06300
Co2594     Co  0.54904120  0.94869512  0.74536413     0.73800
N2595       N  0.98545432  0.53662229  0.75432978    -0.46500
C2596       C  0.62851368  0.87280937  0.81929634     0.42900
N2597       N  0.61294334  0.90317213  0.73473543    -0.46500
Co2598     Co  0.55065163  0.51521112  0.77722727     0.73900
C2599       C  0.61740479  0.53778843  0.79934072    -0.06800
C2600       C  0.98429391  0.91219456  0.82495579    -0.06400
N2601       N  0.58700389  0.88674622  0.76020068    -0.25900
N2602       N  0.98986946  0.50339685  0.82429347    -0.46700
H2603       H  0.61841448  0.92013353  0.83803077     0.07000
C2604       C  0.61236708  0.49526420  0.73162387    -0.06800
Cl2605     Cl  0.54984495  0.95172035  0.77892330    -0.49800
C2606       C  0.96738650  0.52570563  0.73945578     0.42700
H2607       H  0.61851950  0.84141299  0.76638574     0.06900
N2608       N  0.61297284  0.53685881  0.75345947    -0.46500
C2609       C  0.71073020  0.53894176  0.87157279    -0.03300
C2610       C  0.71694802  0.56481068  0.88481348    -0.09000
C2611       C  0.72234314  0.55554836  0.90299998    -0.16700
C2612       C  0.72159072  0.52036496  0.90820661     0.25500
C2613       C  0.71610397  0.49437963  0.89509978    -0.18300
C2614       C  0.71071295  0.50357754  0.87689296    -0.07300
C2615       C  0.72631753  0.51097621  0.92700500    -0.13700
C2616       C  0.73098155  0.50303906  0.94269598    -0.13400
C2617       C  0.73855604  0.49302196  0.96116091     0.25400
C2618       C  0.73527594  0.95799696  0.96643362    -0.18800
C2619       C  0.74609824  0.94755709  0.98379601    -0.07300
C2620       C  0.76067217  0.97201225  0.99598179    -0.03400
C2621       C  0.76225043  0.50739774  0.99094586    -0.08700
C2622       C  0.75134296  0.51782936  0.97357060    -0.16300
H2623       H  0.71663997  0.59226790  0.88120903     0.11800
H2624       H  0.72663943  0.57585937  0.91303651     0.11100
H2625       H  0.71573291  0.46703662  0.89897110     0.11000
H2626       H  0.70645051  0.48305809  0.86698080     0.11600
H2627       H  0.72535711  0.93860308  0.95695431     0.11600
H2628       H  0.74437767  0.92019410  0.98750907     0.11600
H2629       H  0.77344767  0.52660382  0.00014588     0.11700
H2630       H  0.75396118  0.54500637  0.96961866     0.10600
C2631       C  0.88958926  0.85717290  0.87320385    -0.03300
C2632       C  0.88205717  0.82963965  0.88535509    -0.09000
C2633       C  0.87382618  0.83652923  0.90359269    -0.16700
C2634       C  0.87302230  0.87100860  0.91000657     0.25500
C2635       C  0.88055051  0.89853343  0.89804356    -0.18300
C2636       C  0.88872862  0.89172616  0.87981710    -0.07300
C2637       C  0.86393065  0.87840954  0.92872717    -0.13700
C2638       C  0.85572020  0.88629549  0.94409657    -0.13400
C2639       C  0.84507880  0.89797324  0.96199423     0.25400
C2640       C  0.84696916  0.93356938  0.96637073    -0.18800
C2641       C  0.83506975  0.94547237  0.98328824    -0.07300
C2642       C  0.82079459  0.92197876  0.99606091    -0.03400
C2643       C  0.81986320  0.88614404  0.99183045    -0.08700
C2644       C  0.83182112  0.87423162  0.97486096    -0.16300
H2645       H  0.88306786  0.80271334  0.88084629     0.11800
H2646       H  0.86813120  0.81495064  0.91268707     0.11100
H2647       H  0.87990467  0.92534861  0.90278350     0.11000
H2648       H  0.89396092  0.91358457  0.87084638     0.11600
H2649       H  0.85717100  0.95223611  0.95659167     0.11600
H2650       H  0.83631951  0.97316635  0.98630061     0.11600
H2651       H  0.80888439  0.86759341  0.00143791     0.11700
H2652       H  0.83016893  0.84662720  0.97166855     0.10600
C2653       C  0.65817314  0.59296390  0.68112215    -0.03300
C2654       C  0.62203292  0.59648339  0.67633715    -0.09000
C2655       C  0.61220910  0.60874255  0.65912786    -0.16700
C2656       C  0.63827323  0.61759024  0.64636519     0.25500
C2657       C  0.67434462  0.61350516  0.65083892    -0.18300
C2658       C  0.68426133  0.60139492  0.66813660    -0.07300
C2659       C  0.62775589  0.63176652  0.62894612    -0.13700
C2660       C  0.61767919  0.64399854  0.61466866    -0.13400
C2661       C  0.60478617  0.65845515  0.59773383     0.25400
C2662       C  0.60850959  0.69423892  0.59405818    -0.18800
C2663       C  0.59594317  0.70816107  0.57763080    -0.07300
C2664       C  0.57929815  0.68646946  0.56471878    -0.03400
C2665       C  0.57577948  0.65060236  0.56846661    -0.08700
C2666       C  0.58833025  0.63672408  0.58489151    -0.16300
H2667       H  0.60131487  0.59084494  0.68612898     0.11800
H2668       H  0.58423697  0.61189189  0.65588860     0.11100
H2669       H  0.69479464  0.62018241  0.64106885     0.11000
H2670       H  0.71225682  0.59885421  0.67142602     0.11600
H2671       H  0.62115834  0.71135823  0.60387017     0.11600
H2672       H  0.59924004  0.73582911  0.57496756     0.11600
H2673       H  0.56291366  0.63344393  0.55875196     0.11700
H2674       H  0.58515995  0.60904075  0.58758264     0.10600
C2675       C  0.93745153  0.81721684  0.68155624    -0.03300
C2676       C  0.93939173  0.78237514  0.67543858    -0.09000
C2677       C  0.95129847  0.77478062  0.65790267    -0.16700
C2678       C  0.96154301  0.80179845  0.64620292     0.25500
C2679       C  0.95926248  0.83658134  0.65201713    -0.18300
C2680       C  0.94727208  0.84427522  0.66958040    -0.07300
C2681       C  0.97501108  0.79346739  0.62840887    -0.13700
C2682       C  0.98627241  0.78432168  0.61382063    -0.13400
C2683       C  0.49928171  0.77088786  0.59680008     0.25400
C2684       C  0.51717952  0.79275475  0.58455646    -0.18800
C2685       C  0.53008654  0.77925089  0.56815293    -0.07300
C2686       C  0.52547475  0.74370068  0.56396468    -0.03400
C2687       C  0.50710673  0.72204733  0.57619521    -0.08700
C2688       C  0.99417374  0.73556283  0.59253696    -0.16300
H2689       H  0.93285138  0.76084937  0.68440194     0.11800
H2690       H  0.95309272  0.74775343  0.65357582     0.11100
H2691       H  0.96708489  0.85771188  0.64305488     0.11000
H2692       H  0.94590647  0.87134163  0.67383815     0.11600
H2693       H  0.52130840  0.82012134  0.58772725     0.11600
H2694       H  0.54423118  0.79630493  0.55888218     0.11600
H2695       H  0.00302579  0.69463815  0.57312010     0.11700
H2696       H  0.98032005  0.71842464  0.60188902     0.10600
C2697       C  0.58283661  0.72623050  0.99556069    -0.03300
C2698       C  0.59982085  0.70455799  0.98281268    -0.09000
C2699       C  0.61242790  0.71839898  0.96641595    -0.16700
C2700       C  0.60843397  0.75409324  0.96258988     0.25500
C2701       C  0.59234610  0.77598653  0.97544629    -0.18300
C2702       C  0.57975150  0.76217281  0.99186662    -0.07300
C2703       C  0.61993169  0.76790318  0.94527132    -0.13700
C2704       C  0.62896471  0.77812435  0.93041353    -0.13400
C2705       C  0.63927210  0.78830964  0.91224010     0.25400
C2706       C  0.64112138  0.82367418  0.90729079    -0.18800
C2707       C  0.65048433  0.83319623  0.88950472    -0.07300
C2708       C  0.65825905  0.80743459  0.87643450    -0.03400
C2709       C  0.65635259  0.77199046  0.88159541    -0.08700
C2710       C  0.64696979  0.76256326  0.89932471    -0.16300
H2711       H  0.60282545  0.67684794  0.98545641     0.11800
H2712       H  0.62488309  0.70117365  0.95662140     0.11100
H2713       H  0.58906786  0.80362563  0.97266923     0.11000
H2714       H  0.56671555  0.77933663  0.00148560     0.11600
H2715       H  0.63519038  0.84387846  0.91714798     0.11600
H2716       H  0.65182824  0.86067009  0.88599870     0.11600
H2717       H  0.66136708  0.75144608  0.87180439     0.11700
H2718       H  0.64541049  0.73511591  0.90291386     0.10600
C2719       C  0.52747985  0.67029388  0.99432321    -0.03300
C2720       C  0.52998359  0.63450729  0.99020686    -0.09000
C2721       C  0.51751234  0.62180851  0.97350897    -0.16700
C2722       C  0.00220368  0.64472193  0.96083479     0.25500
C2723       C  0.99928704  0.68034184  0.96496749    -0.18300
C2724       C  0.01169563  0.69304141  0.98163558    -0.07300
C2725       C  0.98951381  0.63191046  0.94356431    -0.13700
C2726       C  0.97882275  0.62252651  0.92886239    -0.13400
C2727       C  0.96634574  0.61302026  0.91098122     0.25400
C2728       C  0.96136764  0.63898052  0.89779779    -0.18800
C2729       C  0.95005754  0.62998351  0.88029631    -0.07300
C2730       C  0.94370531  0.59481177  0.87569115    -0.03400
C2731       C  0.94858125  0.56886739  0.88902371    -0.08700
C2732       C  0.95968792  0.57796262  0.90659789    -0.16300
H2733       H  0.54204225  0.61655794  0.99981278     0.11800
H2734       H  0.51990985  0.59419603  0.97046294     0.11100
H2735       H  0.98742769  0.69830899  0.95529869     0.11000
H2736       H  0.00908410  0.72064591  0.98463578     0.11600
H2737       H  0.96659040  0.66616673  0.90099086     0.11600
H2738       H  0.94716405  0.65044521  0.87020856     0.11600
H2739       H  0.94384480  0.54161836  0.88582022     0.11700
H2740       H  0.96341132  0.55764794  0.91669987     0.10600
C2741       C  0.82133368  0.98561812  0.56175534    -0.03300
C2742       C  0.81836676  0.52065645  0.56723001    -0.09000
C2743       C  0.83185167  0.53122134  0.58410972    -0.16700
C2744       C  0.84868914  0.00691644  0.59551295     0.25500
C2745       C  0.85294547  0.97229610  0.58977280    -0.18300
C2746       C  0.83945870  0.96171258  0.57295004    -0.07300
C2747       C  0.85999398  0.51687062  0.61347259    -0.13700
C2748       C  0.86824256  0.52399336  0.62887679    -0.13400
C2749       C  0.87702352  0.53175843  0.64748786     0.25400
C2750       C  0.88282191  0.50455586  0.65989680    -0.18800
C2751       C  0.89089879  0.51207866  0.67805199    -0.07300
C2752       C  0.89318817  0.54696115  0.68401932    -0.03400
C2753       C  0.88731397  0.57409793  0.67142359    -0.08700
C2754       C  0.87927446  0.56651519  0.65328637    -0.16300
H2755       H  0.80441234  0.53939774  0.55877198     0.11800
H2756       H  0.82839247  0.55807198  0.58844984     0.11100
H2757       H  0.86594025  0.95329954  0.59848106     0.11000
H2758       H  0.84220193  0.93463553  0.56886719     0.11600
H2759       H  0.88096403  0.97754173  0.65555653     0.11600
H2760       H  0.89492231  0.49064941  0.68747005     0.11600
H2761       H  0.88940804  0.60120216  0.67554668     0.11700
H2762       H  0.87484845  0.58775717  0.64378753     0.10600
C2763       C  0.70633138  0.85722879  0.68549729    -0.03300
C2764       C  0.70819836  0.89249394  0.68012190    -0.09000
C2765       C  0.71603571  0.90132537  0.66212254    -0.16700
C2766       C  0.72209679  0.87508975  0.64923588     0.25500
C2767       C  0.72070856  0.83991960  0.65447574    -0.18300
C2768       C  0.71290248  0.83101290  0.67249194    -0.07300
C2769       C  0.72947485  0.88444373  0.63064790    -0.13700
C2770       C  0.73569088  0.89366427  0.61528832    -0.13400
C2771       C  0.74380714  0.90645262  0.59734458     0.25400
C2772       C  0.75460728  0.88336863  0.58364193    -0.18800
C2773       C  0.76456281  0.89625472  0.56656756    -0.07300
C2774       C  0.76388074  0.93238599  0.56305656    -0.03400
C2775       C  0.75154963  0.95520096  0.57665228    -0.08700
C2776       C  0.74191307  0.94233808  0.59373206    -0.16300
H2777       H  0.70377085  0.91325554  0.68986552     0.11800
H2778       H  0.71723014  0.92863994  0.65823964     0.11100
H2779       H  0.72534905  0.81939266  0.64461307     0.11000
H2780       H  0.71126540  0.80362992  0.67615759     0.11600
H2781       H  0.75603169  0.85552401  0.58626960     0.11600
H2782       H  0.77384712  0.87816971  0.55629061     0.11600
H2783       H  0.75007549  0.98307164  0.57415186     0.11700
H2784       H  0.73342849  0.96043507  0.60419364     0.10600
C2785       C  0.68404638  0.56277333  0.18123277    -0.03300
C2786       C  0.69137456  0.58896146  0.16826903    -0.09000
C2787       C  0.70246573  0.58005475  0.15064517    -0.16700
C2788       C  0.70653385  0.54486218  0.14571804     0.25500
C2789       C  0.69888910  0.51870888  0.15845807    -0.18300
C2790       C  0.68773981  0.52752539  0.17602153    -0.07300
C2791       C  0.71909104  0.53521842  0.12779286    -0.13700
C2792       C  0.72968442  0.52500271  0.11318272    -0.13400
C2793       C  0.74205867  0.51068468  0.09609295     0.25400
C2794       C  0.71808860  0.99398531  0.08431268    -0.18800
C2795       C  0.73013568  0.97886390  0.06809985    -0.07300
C2796       C  0.76641865  0.97991670  0.06352034    -0.03400
C2797       C  0.79031470  0.49705070  0.07527254    -0.08700
C2798       C  0.77820856  0.51231232  0.09144888    -0.16300
H2799       H  0.68865606  0.61632186  0.17178601     0.11800
H2800       H  0.70819725  0.60061215  0.14093876     0.11100
H2801       H  0.70203059  0.99139475  0.15489302     0.11000
H2802       H  0.68306939  0.50669433  0.18570603     0.11600
H2803       H  0.69010294  0.99237361  0.08773897     0.11600
H2804       H  0.71125998  0.96577921  0.05926673     0.11600
H2805       H  0.81834085  0.49850876  0.07192801     0.11700
H2806       H  0.79708690  0.52510294  0.10040217     0.10600
C2807       C  0.58012075  0.68538176  0.49698767    -0.03300
C2808       C  0.57726460  0.64949797  0.49316018    -0.09000
C2809       C  0.58716227  0.63662070  0.47607558    -0.16700
C2810       C  0.60012775  0.65948751  0.46273728     0.25500
C2811       C  0.60449778  0.69497706  0.46678499    -0.18300
C2812       C  0.59485519  0.70780408  0.48384809    -0.07300
C2813       C  0.60756778  0.64714147  0.44463972    -0.13700
C2814       C  0.61324031  0.63871200  0.42910572    -0.13400
C2815       C  0.62019429  0.63023371  0.41036015     0.25400
C2816       C  0.65512176  0.63076791  0.40381789    -0.18800
C2817       C  0.66204316  0.62289581  0.38560654    -0.07300
C2818       C  0.63406529  0.61445670  0.37360826    -0.03400
C2819       C  0.59896338  0.61419484  0.38029914    -0.08700
C2820       C  0.59211086  0.62203195  0.39855296    -0.16300
H2821       H  0.56605549  0.63176763  0.50311205     0.11800
H2822       H  0.58380896  0.60906871  0.47311102     0.11100
H2823       H  0.61464402  0.71288750  0.45661464     0.11000
H2824       H  0.59781045  0.73546607  0.48662018     0.11600
H2825       H  0.67706229  0.63712361  0.41282046     0.11600
H2826       H  0.68940292  0.62277011  0.38101234     0.11600
H2827       H  0.57678853  0.60822143  0.37139382     0.11700
H2828       H  0.56492233  0.62177345  0.40343989     0.10600
C2829       C  0.81447553  0.98796569  0.49442694    -0.03300
C2830       C  0.83154974  0.96574240  0.48198780    -0.09000
C2831       C  0.84477861  0.97897412  0.46560404    -0.16700
C2832       C  0.84123917  0.01457892  0.46148282     0.25500
C2833       C  0.82438904  0.53690700  0.47387240    -0.18300
C2834       C  0.81121012  0.52370313  0.49030037    -0.07300
C2835       C  0.85479320  0.52797624  0.44450426    -0.13700
C2836       C  0.86605856  0.53779066  0.42999658    -0.13400
C2837       C  0.87895512  0.54745377  0.41221671     0.25400
C2838       C  0.88462547  0.58262600  0.40768312    -0.18800
C2839       C  0.89572998  0.59176144  0.39011871    -0.07300
C2840       C  0.90154833  0.56576276  0.37692918    -0.03400
C2841       C  0.89629782  0.53049588  0.38172565    -0.08700
C2842       C  0.88504367  0.52145867  0.39921025    -0.16300
H2843       H  0.83470742  0.93818822  0.48500501     0.11800
H2844       H  0.85779031  0.96143743  0.45615344     0.11100
H2845       H  0.82142747  0.56447951  0.47083406     0.11000
H2846       H  0.79814115  0.54124504  0.49972151     0.11600
H2847       H  0.88003562  0.60299243  0.41763817     0.11600
H2848       H  0.89960949  0.61909234  0.38679837     0.11600
H2849       H  0.89986404  0.50993024  0.37177653     0.11700
H2850       H  0.88058585  0.99418270  0.40250369     0.10600
C2851       C  0.57703392  0.72529146  0.06322064    -0.03300
C2852       C  0.59213082  0.70272568  0.07621538    -0.09000
C2853       C  0.60138975  0.71520995  0.09345203    -0.16700
C2854       C  0.59584281  0.75040646  0.09786151     0.25500
C2855       C  0.58160780  0.77321075  0.08481529    -0.18300
C2856       C  0.57236872  0.76074825  0.06754194    -0.07300
C2857       C  0.60391994  0.76277689  0.11591551    -0.13700
C2858       C  0.61025932  0.77197965  0.13128367    -0.13400
C2859       C  0.61768523  0.78140473  0.14988602     0.25400
C2860       C  0.62073484  0.81658782  0.15493996    -0.18800
C2861       C  0.62820439  0.82549324  0.17302100    -0.07300
C2862       C  0.63287131  0.79925856  0.18625291    -0.03400
C2863       C  0.62954844  0.76402089  0.18104449    -0.08700
C2864       C  0.62195986  0.75519330  0.16300265    -0.16300
H2865       H  0.59605058  0.67531308  0.07310713     0.11800
H2866       H  0.61239025  0.69731736  0.10341889     0.11100
H2867       H  0.57713636  0.80047299  0.08808730     0.11000
H2868       H  0.56054939  0.77846586  0.05774449     0.11600
H2869       H  0.61752910  0.83710622  0.14490119     0.11600
H2870       H  0.63100016  0.85282828  0.17659171     0.11600
H2871       H  0.63260081  0.74329157  0.19096849     0.11700
H2872       H  0.61951245  0.72788756  0.15927364     0.10600
C2873       C  0.51998527  0.67239928  0.06186741    -0.03300
C2874       C  0.02336774  0.63757584  0.06769283    -0.09000
C2875       C  0.01030829  0.62741825  0.08474193    -0.16700
C2876       C  0.99350896  0.65190923  0.09602494     0.25500
C2877       C  0.98881852  0.68628830  0.08992779    -0.18300
C2878       C  0.50182385  0.69643814  0.07293206    -0.07300
C2879       C  0.98246331  0.64238199  0.11415090    -0.13700
C2880       C  0.97414478  0.63554547  0.12961323    -0.13400
C2881       C  0.96502992  0.62792074  0.14825957     0.25400
C2882       C  0.95813574  0.65516190  0.16048527    -0.18800
C2883       C  0.94984335  0.64777333  0.17864767    -0.07300
C2884       C  0.94840858  0.61296882  0.18486088    -0.03400
C2885       C  0.95519858  0.58579094  0.17242168    -0.08700
C2886       C  0.96347496  0.59323729  0.15428601    -0.16300
H2887       H  0.03734629  0.61869551  0.05937901     0.11800
H2888       H  0.01408319  0.60072974  0.08930344     0.11100
H2889       H  0.97582975  0.70546464  0.09848571     0.11000
H2890       H  0.49872009  0.72335779  0.06861955     0.11600
H2891       H  0.95936829  0.68213414  0.15600634     0.11600
H2892       H  0.94510482  0.66929507  0.18789174     0.11600
H2893       H  0.95372434  0.55870936  0.17666300     0.11700
H2894       H  0.96866922  0.57191820  0.14496432     0.10600
C2895       C  0.75977256  0.93136849  0.49545716    -0.03300
C2896       C  0.74236689  0.95287917  0.48275175    -0.09000
C2897       C  0.72936367  0.93881902  0.46649866    -0.16700
C2898       C  0.73343431  0.90310932  0.46283267     0.25500
C2899       C  0.75009406  0.88140549  0.47562150    -0.18300
C2900       C  0.76308505  0.89543430  0.49189335    -0.07300
C2901       C  0.72133685  0.88898340  0.44575422    -0.13700
C2902       C  0.71197575  0.87788340  0.43115358    -0.13400
C2903       C  0.70172636  0.86572734  0.41335733     0.25400
C2904       C  0.66591110  0.86603894  0.40804360    -0.18800
C2905       C  0.65621914  0.85583383  0.39042920    -0.07300
C2906       C  0.68228204  0.84520779  0.37786763    -0.03400
C2907       C  0.71818418  0.84453153  0.38348118    -0.08700
C2908       C  0.72777822  0.85467304  0.40108204    -0.16300
H2909       H  0.73916992  0.98057256  0.48536085     0.11800
H2910       H  0.71645233  0.95584103  0.45672040     0.11100
H2911       H  0.75340716  0.85374942  0.47292267     0.11000
H2912       H  0.77642144  0.87844247  0.50153293     0.11600
H2913       H  0.64551411  0.87456475  0.41744267     0.11600
H2914       H  0.62837425  0.85641401  0.38661146     0.11600
H2915       H  0.73906203  0.83724493  0.37409315     0.11700
H2916       H  0.75560689  0.85451698  0.40500049     0.10600
C2917       C  0.82041778  0.92248404  0.06387252    -0.03300
C2918       C  0.85718538  0.92308969  0.06741840    -0.09000
C2919       C  0.87058586  0.90987592  0.08382191    -0.16700
C2920       C  0.84740193  0.89568925  0.09677569     0.25500
C2921       C  0.81078086  0.89460944  0.09320164    -0.18300
C2922       C  0.79736412  0.90783363  0.07683363    -0.07300
C2923       C  0.86094980  0.88272352  0.11385837    -0.13700
C2924       C  0.87099652  0.87238604  0.12851428    -0.13400
C2925       C  0.88113842  0.86092209  0.14647885     0.25400
C2926       C  0.85481943  0.85172512  0.15902816    -0.18800
C2927       C  0.86418427  0.84226222  0.17676378    -0.07300
C2928       C  0.90013498  0.84175905  0.18225830    -0.03400
C2929       C  0.92648869  0.85048003  0.16944235    -0.08700
C2930       C  0.91702193  0.86001330  0.15167810    -0.16300
H2931       H  0.87539875  0.93424508  0.05759882     0.11800
H2932       H  0.89896024  0.91089462  0.08644067     0.11100
H2933       H  0.79258268  0.88364784  0.10309485     0.11000
H2934       H  0.76898659  0.90665992  0.07426356     0.11600
H2935       H  0.82695269  0.85252868  0.15520724     0.11600
H2936       H  0.84312906  0.83650951  0.18634091     0.11600
H2937       H  0.95437749  0.85017162  0.17319009     0.11700
H2938       H  0.93764505  0.86709510  0.14208014     0.10600
C2939       C  0.95608773  0.79789020  0.37233723    -0.03300
C2940       C  0.95831950  0.76314468  0.37858080    -0.09000
C2941       C  0.96776780  0.75597327  0.39664099    -0.16700
C2942       C  0.97507208  0.78337102  0.40872996     0.25500
C2943       C  0.97324043  0.81797931  0.40260184    -0.18300
C2944       C  0.96382816  0.82520939  0.38456570    -0.07300
C2945       C  0.98408676  0.77599031  0.42744163    -0.13700
C2946       C  0.99158437  0.76923427  0.44304425    -0.13400
C2947       C  0.00101826  0.75969162  0.46143371     0.25400
C2948       C  0.51702074  0.78409139  0.47310639    -0.18800
C2949       C  0.52818042  0.77397894  0.49053823    -0.07300
C2950       C  0.52371519  0.73927606  0.49637534    -0.03400
C2951       C  0.00641938  0.71531460  0.48486107    -0.08700
C2952       C  0.99527119  0.72543752  0.46748672    -0.16300
H2953       H  0.95291489  0.74152351  0.36948122     0.11800
H2954       H  0.96921926  0.72905654  0.40119454     0.11100
H2955       H  0.97875308  0.83941962  0.41181382     0.11000
H2956       H  0.96183143  0.85224823  0.38030471     0.11600
H2957       H  0.52158729  0.81068418  0.46859116     0.11600
H2958       H  0.54156518  0.79278812  0.49918192     0.11600
H2959       H  0.00255795  0.68847703  0.48914768     0.11700
H2960       H  0.98285556  0.70633801  0.45863131     0.10600
loop_ 
_geom_bond_atom_site_label_1 
_geom_bond_atom_site_label_2 
_geom_bond_distance 
_geom_bond_site_symmetry_2 
_ccdc_geom_bond_type 
C1            C2   1.407       .  A
C1            C6   1.406       .  A
C1          C719   1.490       .  S
C2            C3   1.406       .  A
C2            H7   1.082       .  S
C3            C4   1.404       .  A
C3          C156   1.479       .  S
C4            C5   1.403       .  A
C4            H8   1.082       .  S
C5            C6   1.405       .  A
C5           C37   1.480       .  S
C6            H9   1.083       .  S
C10          C11   1.409       .  A
C10          C15   1.409       .  A
C10         C708   1.490       .  S
C11          C12   1.403       .  A
C11          H16   1.083       .  S
C12          C13   1.402       .  A
C12          C67   1.474       .  S
C13          C14   1.402       .  A
C13          H17   1.084       .  S
C14          C15   1.403       .  A
C14         C126   1.476       .  S
C15          H18   1.083       .  S
C19          C20   1.410       .  A
C19          C24   1.408       .  A
C19         C686   1.490       .  S
C20          C21   1.405       .  A
C20          H25   1.083       .  S
C21          C22   1.404       .  A
C21          C87   1.479       .  S
C22          C23   1.405       .  A
C22          H26   1.084       .  S
C23          C24   1.402       .  A
C23         C166   1.477       .  S
C24          H27   1.083       .  S
C28          C29   1.404       .  A
C28          C33   1.404       .  A
C28         C664   1.490       .  S
C29          C30   1.407       .  A
C29          H34   1.082       .  S
C30          C31   1.407       .  A
C30         C176   1.481       .  S
C31          C32   1.406       .  A
C31          H35   1.084       .  S
C32          C33   1.406       .  A
C32          C77   1.482       .  S
C33          H36   1.082       .  S
C37          C74   1.464       .  S
C37        N1535   1.350       .  A
N38          N55   1.323       .  A
N38        N1540   1.321       .  A
N38         Co75   2.079   1_655  S
C39        C1557   1.460   1_455  S
C39          H84   1.081       .  S
C39         N804   1.337   1_545  A
H40          C81   1.082   1_455  S
C41          C45   1.462       .  S
C41          H70   1.081       .  S
C41          N65   1.336       .  A
Co42         N60   2.097       .  S
Co42         N82   2.075       .  S
Co42       N1530   2.077       .  S
Co42       N1538   2.102       .  S
Co42      Cl1566   2.439       .  S
N43          C81   1.344   1_455  A
N43          N50   1.319   1_455  A
N43         Co44   2.091       .  S
Co44         N47   2.078       .  S
Co44         N64   2.079       .  S
Co44         N51   2.094       .  S
Co44        Cl86   2.469       .  S
C45          C92   1.477       .  S
C45          N83   1.350       .  A
N46          N53   1.319       .  A
N46          N76   1.325       .  A
N46         Co79   2.088       .  S
N47          N65   1.321       .  A
N47          N83   1.325       .  A
N48          C77   1.354       .  A
N48        N2278   1.328   1_545  A
H49          C74   1.081       .  S
N50        N1551   1.323       .  A
N50       Co1522   2.077       .  S
N51          N69   1.320       .  A
N51         N796   1.328       .  A
C52          C80   1.459       .  S
C52         C119   1.480       .  S
C52          N56   1.353       .  A
N53          C68   1.344       .  A
N53         Co75   2.090       .  S
C54          C57   1.457       .  S
C54          H88   1.082       .  S
C54         N822   1.337   1_545  A
N55        C1517   1.350       .  A
N56         N791   1.328   1_545  A
C57         C101   1.473       .  S
C57        N1558   1.351       .  A
N58          N64   1.321   1_655  A
N58        N2268   1.328       .  A
N58       Co1522   2.102       .  S
N59         C825   1.338       .  A
N59          N61   1.320       .  A
N59         Co75   2.073       .  S
N60          C74   1.342       .  A
N60        N1518   1.321       .  A
N61         N829   1.325       .  A
N61         Co79   2.095       .  S
H62          C85   1.081       .  S
H63          C80   1.082       .  S
N64         C779   1.337       .  A
N65         Co79   2.087       .  S
N66         N818   1.327       .  A
N66        N1562   1.319       .  A
N66         Co75   2.088   1_655  S
C67        C1561   1.463       .  S
C67          N71   1.348       .  A
C68          C87   1.463       .  S
C68          H72   1.082       .  S
N69         C820   1.339       .  A
N69         Co79   2.083       .  S
N71        N1530   1.323       .  A
C73          C85   1.458       .  S
C73         C112   1.476       .  S
C73          N89   1.353       .  A
Co75        Cl86   2.468       .  S
N76          C87   1.350       .  A
C77        C1519   1.460       .  S
N78        C1537   1.351       .  A
N78         N806   1.327   1_545  A
Co79        Cl86   2.434       .  S
C80         N809   1.339   1_545  A
C81        C1547   1.463       .  S
N82         C794   1.337       .  A
N82        N1546   1.319       .  A
C85         N799   1.338   1_545  A
Cl86      Co1522   2.439   1_455  S
N89         N801   1.325   1_545  A
C90          C91   1.409       .  A
C90          C95   1.409       .  A
C90         C642   1.486       .  S
C91          C92   1.405       .  A
C91          H96   1.083       .  S
C92          C93   1.399       .  A
C93          C94   1.399       .  A
C93          H97   1.079       .  S
C94          C95   1.403       .  A
C94         C146   1.477       .  S
C95          H98   1.083       .  S
C99         C100   1.409       .  A
C99         C104   1.410       .  A
C99         C620   1.487       .  S
C100        C101   1.402       .  A
C100        H105   1.084       .  S
C101        C102   1.398       .  A
C102        C103   1.400       .  A
C102        H106   1.084       .  S
C103        C104   1.405       .  A
C103        C134   1.475       .  S
C104        H107   1.084       .  S
C108        C109   1.407       .  A
C108        C113   1.406       .  A
C108        C598   1.489       .  S
C109        C110   1.404       .  A
C109        H114   1.083       .  S
C110        C111   1.402       .  A
C110        C141   1.477       .  S
C111        C112   1.401       .  A
C111        H115   1.082       .  S
C112        C113   1.405       .  A
C113        H116   1.082       .  S
C117        C118   1.413       .  A
C117        C122   1.411       .  A
C117        C565   1.495       .  S
C118        C119   1.407       .  A
C118        H123   1.083       .  S
C119        C120   1.401       .  A
C120        C121   1.401       .  A
C120        H124   1.084       .  S
C121        C122   1.405       .  A
C121        C162   1.476       .  S
C122        H125   1.083       .  S
C126        C163   1.457       .  S
C126        N144   1.353       .  A
N127        N144   1.326       .  A
N127        N149   1.319       .  A
N127       Co164   2.092       .  S
C128        C166   1.466       .  S
C128        H173   1.082       .  S
C128        N153   1.345       .  A
H129        C170   1.081       .  S
C130        C134   1.456       .  S
C130        H159   1.082       .  S
C130        N154   1.336       .  A
Co131       N149   2.075       .  S
Co131       N139   2.091       .  S
Co131       N171   2.083       .  S
Co131       N147   2.078       .  S
Co131      Cl175   2.431       .  S
N132        C170   1.341       .  A
N132        N139   1.320       .  A
N132       Co133   2.081       .  S
Co133       N136   2.091       .  S
Co133       N153   2.095       .  S
Co133       N140   2.081       .  S
Co133      Cl175   2.472       .  S
C134        N172   1.352       .  A
N135        N142   1.320       .  A
N135        N165   1.327       .  A
N135       Co168   2.097       .  S
N136        N154   1.319       .  A
N136        N172   1.328       .  A
N137        C166   1.347       .  A
N137        N147   1.324       .  A
H138        C163   1.082       .  S
N139        N160   1.324       .  A
N140        N158   1.321       .  A
N140        N145   1.324       .  A
C141        C169   1.462       .  S
C141        N145   1.350       .  A
N142        C157   1.338       .  A
N142       Co164   2.079       .  S
C143        C146   1.461       .  S
C143        H177   1.081       .  S
C143        N171   1.336       .  A
C146        N167   1.351       .  A
N147        N153   1.319       .  A
N148        C174   1.345       .  A
N148        N150   1.319       .  A
N148       Co164   2.091       .  S
N149        C163   1.338       .  A
N150        N178   1.323       .  A
N150       Co168   2.081       .  S
H151        C174   1.082       .  S
H152        C169   1.081       .  S
N154       Co168   2.075       .  S
N155        N167   1.326       .  A
N155        N171   1.320       .  A
N155       Co164   2.083       .  S
C156        C170   1.462       .  S
C156        N160   1.351       .  A
C157        C176   1.461       .  S
C157        H161   1.081       .  S
N158        C169   1.339       .  A
N158       Co168   2.090       .  S
C162        C174   1.464       .  S
C162        N178   1.348       .  A
Co164      Cl175   2.471       .  S
N165        C176   1.353       .  A
Co168      Cl175   2.432       .  S
C179        C180   1.417       .  A
C179        C184   1.403       .  A
C179        C609   1.484       .  S
C180        C181   1.404       .  A
C180        C675   1.482       .  S
C181        C182   1.403       .  A
C181        H186   1.084       .  S
C182        C183   1.417       .  A
C182        C554   1.488       .  S
C183        C184   1.402       .  A
C183        C521   1.480       .  S
C184        H185   1.084       .  S
C187        C188   1.415       .  A
C187        C192   1.403       .  A
C187        C631   1.483       .  S
C188        C189   1.403       .  A
C188        C653   1.485       .  S
C189        C190   1.406       .  A
C189       H1674   1.084       .  S
C190        C191   1.419       .  A
C190        C499   1.484   1_554  S
C191        C192   1.405       .  A
C191        C477   1.488   1_554  S
C192        H193   1.084       .  S
H194       C1669   1.084       .  S
C195        C196   1.417       .  A
C195        C200   1.403       .  A
C195        C730   1.486       .  S
C196        C197   1.404       .  A
C196        C587   1.485       .  S
C197        C198   1.405       .  A
C197        H202   1.084       .  S
C198        C199   1.417       .  A
C198        C444   1.488       .  S
C199        C200   1.405       .  A
C199        C466   1.481       .  S
C200       H1681   1.084       .  S
H201       C1680   1.084       .  S
C203        C204   1.418       .  A
C203        C208   1.408       .  A
C203        C697   1.484       .  S
C204        C205   1.405       .  A
C204        C576   1.490       .  S
C205        C206   1.405       .  A
C205        H950   1.084       .  S
C206        C207   1.417       .  A
C206        C400   1.482   1_554  S
C207        C208   1.404       .  A
C207        C422   1.491   1_554  S
C208        H209   1.084       .  S
H210        C945   1.084       .  S
C211        C212   1.408       .  A
C211        C216   1.409       .  A
C211        C411   1.494       .  S
C212        C213   1.405       .  A
C212        H217   1.082       .  S
C213        C214   1.403       .  A
C213        C366   1.479       .  S
C214        C215   1.403       .  A
C214        H218   1.083       .  S
C215        C216   1.407       .  A
C215        C265   1.482       .  S
C216        H219   1.083       .  S
C220        C221   1.408       .  A
C220        C225   1.409       .  A
C220        C510   1.484       .  S
C221        C222   1.402       .  A
C221        H226   1.084       .  S
C222        C223   1.398       .  A
C222        C285   1.471       .  S
C223        C224   1.400       .  A
C223        H227   1.084       .  S
C224        C225   1.404       .  A
C224        C344   1.473       .  S
C225        H228   1.084       .  S
C229        C230   1.406       .  A
C229        C234   1.405       .  A
C229        C389   1.485       .  S
C230        C231   1.404       .  A
C230        H235   1.082       .  S
C231        C232   1.402       .  A
C231        C301   1.478       .  S
C232        C233   1.403       .  A
C232        H236   1.082       .  S
C233        C234   1.403       .  A
C233        C351   1.477       .  S
C234        H237   1.083       .  S
C238        C239   1.409       .  A
C238        C243   1.408       .  A
C238        C488   1.491       .  S
C239        C240   1.406       .  A
C239        H244   1.083       .  S
C240        C241   1.405       .  A
C240        C376   1.478       .  S
C241        C242   1.404       .  A
C241        H245   1.084       .  S
C242        C243   1.402       .  A
C242        C315   1.477       .  S
C243        H246   1.083       .  S
C247        C248   1.410       .  A
C247        C252   1.409       .  A
C247        C433   1.488       .  S
C248        C249   1.406       .  A
C248        H253   1.084       .  S
C249        C250   1.402       .  A
C249        C280   1.478       .  S
C250        C251   1.401       .  A
C250        H254   1.084       .  S
C251        C252   1.402       .  A
C251        C372   1.474       .  S
C252        H255   1.084       .  S
C256        C257   1.402       .  A
C256        C261   1.402       .  A
C256        C532   1.485       .  S
C257        C258   1.405       .  A
C257        H262   1.082       .  S
C258        C259   1.406       .  A
C258        C305   1.480       .  S
C259        C260   1.407       .  A
C259        H263   1.084       .  S
C260        C261   1.405       .  A
C260        C386   1.479       .  S
C261        H264   1.082       .  S
C265        C302   1.465       .  S
C265        N283   1.350       .  A
N266        N283   1.325       .  A
N266        N288   1.321       .  A
N266       Co303   2.081       .  S
C267        C305   1.459       .  S
C267        H312   1.081       .  S
C267        N292   1.336       .  A
H268        C309   1.082       .  S
C269        C273   1.462       .  S
C269        H298   1.081       .  S
C269        N293   1.336       .  A
Co270       N288   2.097       .  S
Co270       N278   2.077       .  S
Co270       N310   2.075       .  S
Co270       N286   2.100       .  S
Co270      Cl314   2.437       .  S
N271        C309   1.343       .  A
N271        N278   1.319       .  A
N271       Co272   2.088       .  S
Co272       N275   2.075       .  S
Co272       N292   2.074       .  S
Co272       N279   2.093       .  S
Co272      Cl314   2.467       .  S
C273        C331   1.475       .  S
C273        N311   1.349       .  A
N274        N281   1.319       .  A
N274        N304   1.325       .  A
N274       Co307   2.085       .  S
N275        N293   1.320       .  A
N275        N311   1.324       .  A
N276        C305   1.354       .  A
N276        N286   1.328       .  A
H277        C302   1.081       .  S
N278        N299   1.323       .  A
N279        N297   1.320       .  A
N279        N284   1.328       .  A
C280        C308   1.458       .  S
C280        N284   1.353       .  A
N281        C296   1.343       .  A
N281       Co303   2.089       .  S
C282        C285   1.456       .  S
C282        H316   1.082       .  S
C282        N310   1.337       .  A
C285        N306   1.351       .  A
N286        N292   1.320       .  A
N287        C313   1.339       .  A
N287        N289   1.320       .  A
N287       Co303   2.078       .  S
N288        C302   1.341       .  A
N289        N317   1.324       .  A
N289       Co307   2.092       .  S
H290        C313   1.081       .  S
H291        C308   1.082       .  S
N293       Co307   2.085       .  S
N294        N306   1.327       .  A
N294        N310   1.319       .  A
N294       Co303   2.088       .  S
C295        C309   1.462       .  S
C295        C322   1.472       .  S
C295        N299   1.348       .  A
C296        C315   1.463       .  S
C296        H300   1.082       .  S
N297        C308   1.339       .  A
N297       Co307   2.081       .  S
C301        C313   1.460       .  S
C301        N317   1.352       .  A
Co303      Cl314   2.467       .  S
N304        C315   1.349       .  A
Co307      Cl314   2.434       .  S
C318        C319   1.408       .  A
C318        C323   1.408       .  A
C318        C455   1.487       .  S
C319        C320   1.403       .  A
C319        H324   1.083       .  S
C320        C321   1.402       .  A
C320        C336   1.474       .  S
C321        C322   1.401       .  A
C321        H325   1.084       .  S
C322        C323   1.402       .  A
C323        H326   1.083       .  S
C327        C328   1.409       .  A
C327        C332   1.408       .  A
C327        C543   1.486       .  S
C328        C329   1.403       .  A
C328        H333   1.083       .  S
C329        C330   1.399       .  A
C329        C356   1.476       .  S
C330        C331   1.398       .  A
C330        H334   1.080       .  S
C331        C332   1.403       .  A
C332        H335   1.083       .  S
C336        C373   1.456       .  S
C336        N354   1.353       .  A
N337        N359   1.319       .  A
N337       N1834   1.327   1_455  A
N337       Co374   2.091       .  S
C338        C376   1.465       .  S
C338        H383   1.082       .  S
C338        N363   1.345       .  A
H339        C380   1.081       .  S
C340        C344   1.455       .  S
C340        H369   1.082       .  S
C340       N1844   1.335       .  A
Co341       N359   2.074       .  S
Co341       N349   2.089       .  S
Co341       N381   2.083       .  S
Co341       N357   2.082       .  S
Co341      Cl385   2.430       .  S
N342       C1860   1.341   1_455  A
N342        N349   1.320       .  A
N342       Co343   2.082       .  S
Co343       N363   2.096       .  S
Co343      N1086   2.091       .  S
Co343      N1090   2.085       .  S
Co343      Cl385   2.472       .  S
C344        N382   1.352       .  A
N345        N352   1.320   1_545  A
N345       N1855   1.326   1_455  A
N345       Co378   2.093       .  S
N346        N364   1.320   1_565  A
N346       N1862   1.328   1_465  A
N346      Co1083   2.091       .  S
N347        C376   1.348       .  A
N347        N357   1.324       .  A
H348        C373   1.082       .  S
N349       N1850   1.324   1_455  A
N350        N368   1.321   1_565  A
N350        N355   1.324       .  A
N350      Co1083   2.085       .  S
C351        C379   1.460       .  S
C351        N355   1.352   1_545  A
N352       C1847   1.337   1_455  A
N352      Co1114   2.077       .  S
C353        C356   1.460       .  S
C353        H387   1.081       .  S
C353        N381   1.336       .  A
N354       N1817   1.327       .  A
C356        N377   1.351       .  A
N357        N363   1.320       .  A
N358        C384   1.345       .  A
N358        N360   1.319   1_565  A
N358      Co1114   2.091       .  S
N359       C1853   1.338   1_455  A
N360        N388   1.322       .  A
N360       Co378   2.078       .  S
H361        C384   1.082       .  S
H362        C379   1.081       .  S
N364       C1820   1.335   1_455  A
N364       Co378   2.072       .  S
N365        N377   1.326       .  A
N365        N381   1.320       .  A
N365       Co374   2.081       .  S
C366        C380   1.462       .  S
C366        N370   1.351       .  A
C367        C386   1.461   1_565  S
C367        H371   1.081       .  S
C367       N1832   1.337       .  A
N368        C379   1.338       .  A
N368       Co378   2.084       .  S
N370       N1829   1.324       .  A
C372        C384   1.464   1_545  S
C372        N388   1.347       .  A
C373       N1839   1.338       .  A
Co374      N1092   2.077       .  S
Co374      N1098   2.091       .  S
Co374      Cl385   2.470       .  S
N375        C386   1.352       .  A
N375       N1825   1.326       .  A
Co378     Cl1125   2.431   1_545  S
C380       N1822   1.341       .  A
N382       N1826   1.328   1_545  A
Cl385     Co1118   2.431       .  S
C389        C390   1.407       .  A
C389        C394   1.407       .  A
C390        C391   1.397       .  A
C390        H403   1.083       .  S
C391        C392   1.399       .  A
C391        H404   1.084       .  S
C392        C393   1.400   1_545  A
C392        C395   1.438       .  S
C393        C394   1.398   1_565  A
C393        H405   1.084       .  S
C394        H406   1.083   1_545  S
C395        C396   1.205       .  T
C396        C397   1.438   1_545  S
C397        C402   1.401   1_565  A
C397       C1138   1.400       .  A
C398        C399   1.397       .  A
C398       C1137   1.400       .  A
C398        H407   1.083       .  S
C399        C400   1.406       .  A
C399        H408   1.083       .  S
C400       C1141   1.404       .  A
C401        C402   1.399       .  A
C401       C1140   1.404   1_545  A
C401        H409   1.083   1_556  S
C402        H410   1.083       .  S
C411        C412   1.409       .  A
C411        C416   1.409       .  A
C412        C413   1.402       .  A
C412        H425   1.083       .  S
C413        C414   1.401       .  A
C413        H426   1.083       .  S
C414        C415   1.400       .  A
C414        C417   1.447       .  S
C415        C416   1.400       .  A
C415        H427   1.084       .  S
C416        H428   1.083       .  S
C417        C418   1.210       .  T
C418        C419   1.447       .  S
C419        C420   1.401       .  A
C419        C424   1.403       .  A
C420        C421   1.399       .  A
C420        H429   1.083       .  S
C421        C422   1.406       .  A
C421        H430   1.083       .  S
C422        C423   1.406       .  A
C423        C424   1.403       .  A
C423        H431   1.083   1_556  S
C424        H432   1.083       .  S
C433        C434   1.408       .  A
C433        C438   1.407       .  A
C434        C435   1.398       .  A
C434        H447   1.083       .  S
C435        C436   1.399       .  A
C435        H448   1.084       .  S
C436        C437   1.402       .  A
C436        C439   1.445       .  S
C437        C438   1.403       .  A
C437        H449   1.083       .  S
C438        H450   1.083       .  S
C439        C440   1.209       .  T
C440        C441   1.445       .  S
C441        C442   1.402       .  A
C441        C446   1.401       .  A
C442        C443   1.401       .  A
C442        H451   1.083       .  S
C443        C444   1.407       .  A
C443        H452   1.083       .  S
C444        C445   1.405       .  A
C445        C446   1.400       .  A
C445        H453   1.083       .  S
C446        H454   1.083       .  S
C455        C456   1.408       .  A
C455        C460   1.408       .  A
C456        C457   1.396       .  A
C456        H469   1.083       .  S
C457        C458   1.398       .  A
C457        H470   1.084       .  S
C458        C459   1.400       .  A
C458        C461   1.440       .  S
C459        C460   1.400       .  A
C459        H471   1.083       .  S
C460        H472   1.083       .  S
C461        C462   1.206       .  T
C462       C1943   1.440       .  S
C463        C464   1.401   1_655  A
C463       C1948   1.400       .  A
C463       C1942   1.440       .  S
C464        C465   1.400       .  A
C464        H473   1.083       .  S
C465        C466   1.405       .  A
C465        H474   1.083       .  S
C466        C467   1.404       .  A
C467       C1948   1.397   1_455  A
C467       H1955   1.083       .  S
C468       C1943   1.400       .  A
C468       C1947   1.397       .  A
C468        H476   1.084       .  S
H475       C1947   1.083       .  S
C477        C478   1.406       .  A
C477        C482   1.406       .  A
C478        C479   1.400       .  A
C478        H491   1.083       .  S
C479        C480   1.401       .  A
C479        H492   1.083       .  S
C480        C481   1.401       .  A
C480        C483   1.445       .  S
C481        C482   1.401       .  A
C481        H493   1.083       .  S
C482        H494   1.083   1_556  S
C483        C484   1.209       .  T
C484        C485   1.445       .  S
C485        C486   1.402       .  A
C485        C490   1.399       .  A
C486        C487   1.403       .  A
C486        H495   1.083       .  S
C487        C488   1.408       .  A
C487        H496   1.083       .  S
C488        C489   1.409       .  A
C489        C490   1.398       .  A
C489        H497   1.083       .  S
C490        H498   1.084       .  S
C499        C500   1.405       .  A
C499       C1984   1.405       .  A
C500        C501   1.400       .  A
C500        H513   1.083       .  S
C501       C1982   1.401       .  A
C501        H514   1.083       .  S
C502        C503   1.400       .  A
C502       C1981   1.401       .  A
C502        C505   1.441       .  S
C503        C504   1.398       .  A
C503        H515   1.083       .  S
C504       C1979   1.405       .  A
C504        H516   1.083       .  S
C505        C506   1.207       .  T
C506        C507   1.442       .  S
C507        C508   1.399       .  A
C507        C512   1.401       .  A
C508        C509   1.397       .  A
C508        H517   1.084       .  S
C509        C510   1.407       .  A
C509        H518   1.083       .  S
C510        C511   1.406       .  A
C511        C512   1.401       .  A
C511        H519   1.083       .  S
C512        H520   1.083       .  S
C521        C526   1.405       .  A
C521       C1262   1.404       .  A
C522        C523   1.399       .  A
C522       C1261   1.404   1_545  A
C522        H535   1.083       .  S
C523       C1264   1.401       .  A
C523        H536   1.083       .  S
C524        C525   1.399       .  A
C524       C1263   1.401       .  A
C524       C1267   1.438       .  S
C525        C526   1.396       .  A
C525        H537   1.083       .  S
C526        H538   1.083       .  S
C527       C1264   1.438       .  S
C527        C528   1.205       .  T
C528        C529   1.438       .  S
C529        C530   1.400       .  A
C529        C534   1.399       .  A
C530        C531   1.398       .  A
C530       H1279   1.084   1_545  S
C531        C532   1.407       .  A
C531        H540   1.083   1_545  S
C532        C533   1.407       .  A
C533        C534   1.397       .  A
C533        H541   1.083       .  S
C534        H542   1.083       .  S
H539       C1270   1.084       .  S
C543        C544   1.407       .  A
C543        C548   1.408       .  A
C544        C545   1.398       .  A
C544        H557   1.083       .  S
C545        C546   1.399       .  A
C545        H558   1.084       .  S
C546        C547   1.400       .  A
C546        C549   1.440       .  S
C547        C548   1.399       .  A
C547        H559   1.083       .  S
C548        H560   1.083       .  S
C549        C550   1.206       .  T
C550        C551   1.440       .  S
C551        C552   1.401       .  A
C551        C556   1.399       .  A
C552        C553   1.400       .  A
C552        H561   1.083       .  S
C553        C554   1.406       .  A
C553        H562   1.083       .  S
C554        C555   1.407       .  A
C555        C556   1.397       .  A
C555        H563   1.083       .  S
C556        H564   1.084       .  S
C565        C566   1.410       .  A
C565        C570   1.408       .  A
C566        C567   1.404       .  A
C566        H579   1.083       .  S
C567        C568   1.402       .  A
C567        H580   1.083       .  S
C568        C569   1.400       .  A
C568        C571   1.449       .  S
C569        C570   1.400       .  A
C569       H1321   1.084   1_545  S
C570        H582   1.083       .  S
C571        C572   1.211       .  T
C572        C573   1.449       .  S
C573        C578   1.402       .  A
C573       C1314   1.402   1_545  A
C574        C575   1.401       .  A
C574       C1313   1.402       .  A
C574        H583   1.083       .  S
C575        C576   1.405       .  A
C575        H584   1.083       .  S
C576       C1317   1.407       .  A
C577        C578   1.402   1_565  A
C577       C1316   1.407       .  A
C577        H585   1.083       .  S
C578        H586   1.083       .  S
H581       C1309   1.084       .  S
C587        C588   1.405       .  A
C587        C592   1.406       .  A
C588        C589   1.401       .  A
C588        H601   1.083       .  S
C589        C590   1.402       .  A
C589        H602   1.083       .  S
C590        C591   1.399       .  A
C590        C593   1.440       .  S
C591        C592   1.396       .  A
C591        H603   1.084       .  S
C592        H604   1.083       .  S
C593        C594   1.206       .  T
C594        C595   1.441       .  S
C595        C596   1.399       .  A
C595        C600   1.400       .  A
C596        C597   1.398       .  A
C596        H605   1.084       .  S
C597        C598   1.408       .  A
C597        H606   1.083       .  S
C598        C599   1.408       .  A
C599        C600   1.400       .  A
C599        H607   1.083       .  S
C600        H608   1.083       .  S
C609        C610   1.405       .  A
C609       C1354   1.405       .  A
C610        C611   1.399       .  A
C610        H623   1.083       .  S
C611        C612   1.401       .  A
C611        H624   1.083       .  S
C612       C1353   1.401       .  A
C612       C1355   1.443       .  S
C613        C614   1.400       .  A
C613       C1352   1.401       .  A
C613        H625   1.083       .  S
C614       C1349   1.405   1_545  A
C614        H626   1.083       .  S
C615       C1352   1.443       .  S
C615        C616   1.208       .  T
C616        C617   1.443       .  S
C617        C618   1.402       .  A
C617        C622   1.399       .  A
C618        C619   1.402       .  A
C618        H627   1.083       .  S
C619        C620   1.407       .  A
C619        H628   1.083       .  S
C620        C621   1.408       .  A
C621        C622   1.397       .  A
C621        H629   1.083       .  S
C622       H1370   1.084   1_545  S
H630       C1362   1.084       .  S
C631        C632   1.406       .  A
C631        C636   1.404       .  A
C632        C633   1.398       .  A
C632        H645   1.083       .  S
C633        C634   1.400       .  A
C633        H646   1.083       .  S
C634        C635   1.401       .  A
C634        C637   1.441       .  S
C635        C636   1.400       .  A
C635        H647   1.083       .  S
C636        H648   1.083       .  S
C637        C638   1.207       .  T
C638        C639   1.441       .  S
C639        C640   1.401       .  A
C639        C644   1.399       .  A
C640        C641   1.400       .  A
C640        H649   1.083       .  S
C641        C642   1.408       .  A
C641        H650   1.083       .  S
C642        C643   1.406       .  A
C643        C644   1.398       .  A
C643        H651   1.083       .  S
C644        H652   1.084       .  S
C653        C658   1.406       .  A
C653       C2134   1.404       .  A
C654        C655   1.402       .  A
C654       C2133   1.404       .  A
C654        H667   1.083       .  S
C655        C656   1.403       .  A
C655        H668   1.083       .  S
C656        C657   1.400       .  A
C656        C659   1.443       .  S
C657       C2138   1.398       .  A
C657        H669   1.083       .  S
C658       C2137   1.398   1_455  A
C658        H670   1.083   1_455  S
C659        C660   1.208       .  T
C660        C661   1.443       .  S
C661        C662   1.401       .  A
C661        C666   1.399       .  A
C662        C663   1.401       .  A
C662        H671   1.083       .  S
C663        C664   1.408       .  A
C663        H672   1.083       .  S
C664        C665   1.409       .  A
C665        C666   1.399       .  A
C665        H673   1.083       .  S
C666        H674   1.083       .  S
C675        C676   1.405       .  A
C675        C680   1.405       .  A
C676        C677   1.398       .  A
C676        H689   1.083       .  S
C677        C678   1.401       .  A
C677        H690   1.083       .  S
C678        C679   1.400       .  A
C678        C681   1.440       .  S
C679        C680   1.398       .  A
C679        H691   1.083       .  S
C680        H692   1.083       .  S
C681        C682   1.206       .  T
C682        C683   1.440       .  S
C683        C684   1.400       .  A
C683        C688   1.398       .  A
C684        C685   1.400       .  A
C684        H693   1.083       .  S
C685        C686   1.408       .  A
C685        H694   1.083       .  S
C686        C687   1.410       .  A
C687        C688   1.398       .  A
C687        H695   1.083       .  S
C688        H696   1.084       .  S
C697        C698   1.405       .  A
C697        C702   1.405       .  A
C698        C699   1.400       .  A
C698        H711   1.083       .  S
C699        C700   1.401       .  A
C699        H712   1.083       .  S
C700        C701   1.400       .  A
C700        C703   1.442       .  S
C701        C702   1.398       .  A
C701        H713   1.083       .  S
C702        H714   1.083       .  S
C703        C704   1.207       .  T
C704        C705   1.442       .  S
C705        C706   1.399       .  A
C705        C710   1.401       .  A
C706        C707   1.397       .  A
C706        H715   1.084       .  S
C707        C708   1.409       .  A
C707        H716   1.083       .  S
C708        C709   1.408       .  A
C709        C710   1.401       .  A
C709        H717   1.083       .  S
C710        H718   1.083       .  S
C719        C720   1.408       .  A
C719        C724   1.409       .  A
C720        C721   1.401       .  A
C720        H733   1.083       .  S
C721        C722   1.401       .  A
C721        H734   1.083       .  S
C722        C723   1.399       .  A
C722        C725   1.444       .  S
C723        C724   1.399       .  A
C723        H735   1.083       .  S
C724        H736   1.083       .  S
C725        C726   1.208       .  T
C726        C727   1.444       .  S
C727        C732   1.400       .  A
C727       C2208   1.402       .  A
C728        C729   1.402       .  A
C728       C2207   1.402       .  A
C728        H737   1.083       .  S
C729        C730   1.405       .  A
C729        H738   1.083       .  S
C730       C2211   1.406       .  A
C731        C732   1.398       .  A
C731       C2210   1.406       .  A
C731        H739   1.083       .  S
C732        H740   1.083       .  S
C741        C742   1.407       .  A
C741        C746   1.406       .  A
C741       C1459   1.490       .  S
C742        C743   1.406       .  A
C742        H747   1.082       .  S
C743        C744   1.404       .  A
C743        C896   1.479       .  S
C744        C745   1.403       .  A
C744        H748   1.082       .  S
C745        C746   1.405       .  A
C745        C777   1.480       .  S
C746        H749   1.083       .  S
C750        C751   1.409       .  A
C750        C755   1.409       .  A
C750       C1448   1.490       .  S
C751        C752   1.403       .  A
C751        H756   1.083       .  S
C752        C753   1.402       .  A
C752        C807   1.474       .  S
C753        C754   1.402       .  A
C753        H757   1.084       .  S
C754        C755   1.403       .  A
C754        C866   1.476       .  S
C755        H758   1.083       .  S
C759        C760   1.410       .  A
C759        C764   1.408       .  A
C759       C1426   1.490       .  S
C760        C761   1.405       .  A
C760        H765   1.083       .  S
C761        C762   1.404       .  A
C761        C827   1.479       .  S
C762        C763   1.405       .  A
C762        H766   1.084       .  S
C763        C764   1.402       .  A
C763        C906   1.477       .  S
C764        H767   1.083       .  S
C768        C769   1.404       .  A
C768        C773   1.404       .  A
C768       C1404   1.490       .  S
C769        C770   1.407       .  A
C769        H774   1.082       .  S
C770        C771   1.407       .  A
C770        C916   1.481       .  S
C771        C772   1.406       .  A
C771        H775   1.084       .  S
C772        C773   1.406       .  A
C772        C817   1.482       .  S
C773        H776   1.082       .  S
C777        C814   1.464       .  S
C777       N2275   1.350       .  A
N778        N795   1.323       .  A
N778       N2280   1.321       .  A
N778       Co815   2.079   1_655  S
C779       C2297   1.460   1_455  S
C779        H824   1.081       .  S
H780        C821   1.082   1_455  S
C781        C785   1.462       .  S
C781        H810   1.081       .  S
C781        N805   1.336       .  A
Co782       N800   2.097       .  S
Co782      N2270   2.077       .  S
Co782       N822   2.075       .  S
Co782      N2278   2.102       .  S
Co782     Cl2306   2.439       .  S
N783        C821   1.344   1_455  A
N783        N790   1.319   1_455  A
N783       Co784   2.091       .  S
Co784       N787   2.078       .  S
Co784       N804   2.079       .  S
Co784       N791   2.094       .  S
Co784      Cl826   2.469       .  S
C785        C832   1.477       .  S
C785        N823   1.350       .  A
N786        N793   1.319       .  A
N786        N816   1.325       .  A
N786       Co819   2.088       .  S
N787        N805   1.321       .  A
N787        N823   1.325       .  A
N788        C817   1.354       .  A
N788       N1538   1.328       .  A
H789        C814   1.081       .  S
N790       N2291   1.323       .  A
N790      Co2262   2.077       .  S
N791        N809   1.320       .  A
C792        C820   1.459       .  S
C792        C859   1.480       .  S
C792        N796   1.353       .  A
N793        C808   1.344       .  A
N793       Co815   2.090       .  S
C794        C797   1.457       .  S
C794        H828   1.082       .  S
N795       C2257   1.350       .  A
C797        C841   1.473       .  S
C797       N2298   1.351       .  A
N798       N1528   1.328   1_565  A
N798        N804   1.321   1_655  A
N798      Co2262   2.102       .  S
N799        N801   1.320       .  A
N799       Co815   2.073       .  S
N800        C814   1.342       .  A
N800       N2258   1.321       .  A
N801       Co819   2.095       .  S
H802        C825   1.081       .  S
H803        C820   1.082       .  S
N805       Co819   2.087       .  S
N806       N2302   1.319       .  A
N806       Co815   2.088   1_655  S
C807       C2301   1.463       .  S
C807        N811   1.348       .  A
C808        C827   1.463       .  S
C808        H812   1.082       .  S
N809       Co819   2.083       .  S
N811       N2270   1.323       .  A
C813        C825   1.458       .  S
C813        C852   1.476       .  S
C813        N829   1.353       .  A
Co815      Cl826   2.468       .  S
N816        C827   1.350       .  A
C817       C2259   1.460       .  S
N818       C2277   1.351       .  A
Co819      Cl826   2.434       .  S
C821       C2287   1.463       .  S
N822       N2286   1.319       .  A
Cl826     Co2262   2.439   1_455  S
C830        C831   1.409       .  A
C830        C835   1.409       .  A
C830       C1382   1.486       .  S
C831        C832   1.405       .  A
C831        H836   1.083       .  S
C832        C833   1.399       .  A
C833        C834   1.399       .  A
C833        H837   1.079       .  S
C834        C835   1.403       .  A
C834        C886   1.477       .  S
C835        H838   1.083       .  S
C839        C840   1.409       .  A
C839        C844   1.410       .  A
C839       C1360   1.487       .  S
C840        C841   1.402       .  A
C840        H845   1.084       .  S
C841        C842   1.398       .  A
C842        C843   1.400       .  A
C842        H846   1.084       .  S
C843        C844   1.405       .  A
C843        C874   1.475       .  S
C844        H847   1.084       .  S
C848        C849   1.407       .  A
C848        C853   1.406       .  A
C848       C1338   1.489       .  S
C849        C850   1.404       .  A
C849        H854   1.083       .  S
C850        C851   1.402       .  A
C850        C881   1.477       .  S
C851        C852   1.401       .  A
C851        H855   1.082       .  S
C852        C853   1.405       .  A
C853        H856   1.082       .  S
C857        C858   1.413       .  A
C857        C862   1.411       .  A
C857       C1305   1.495       .  S
C858        C859   1.407       .  A
C858        H863   1.083       .  S
C859        C860   1.401       .  A
C860        C861   1.401       .  A
C860        H864   1.084       .  S
C861        C862   1.405       .  A
C861        C902   1.476       .  S
C862        H865   1.083       .  S
C866        C903   1.457       .  S
C866        N884   1.353       .  A
N867        N884   1.326       .  A
N867        N889   1.319       .  A
N867       Co904   2.092       .  S
C868        C906   1.466       .  S
C868        H913   1.082       .  S
C868        N893   1.345       .  A
H869        C910   1.081       .  S
C870        C874   1.456       .  S
C870        H899   1.082       .  S
C870        N894   1.336       .  A
Co871       N889   2.075       .  S
Co871       N879   2.091       .  S
Co871       N911   2.083       .  S
Co871       N887   2.078       .  S
Co871      Cl915   2.431       .  S
N872        C910   1.341       .  A
N872        N879   1.320       .  A
N872       Co873   2.081       .  S
Co873       N876   2.091       .  S
Co873       N893   2.095       .  S
Co873       N880   2.081       .  S
Co873      Cl915   2.472       .  S
C874        N912   1.352       .  A
N875        N882   1.320       .  A
N875        N905   1.326       .  A
N875       Co908   2.097       .  S
N876        N894   1.319       .  A
N876        N912   1.328       .  A
N877        C906   1.347       .  A
N877        N887   1.324       .  A
H878        C903   1.082       .  S
N879        N900   1.324       .  A
N880        N898   1.321       .  A
N880        N885   1.324       .  A
C881        C909   1.462       .  S
C881        N885   1.350       .  A
N882        C897   1.338       .  A
N882       Co904   2.079       .  S
C883        C886   1.461       .  S
C883        H917   1.081       .  S
C883        N911   1.336       .  A
C886        N907   1.351       .  A
N887        N893   1.319       .  A
N888        C914   1.345       .  A
N888        N890   1.319       .  A
N888       Co904   2.091       .  S
N889        C903   1.338       .  A
N890        N918   1.323       .  A
N890       Co908   2.081       .  S
H891        C914   1.082       .  S
H892        C909   1.081       .  S
N894       Co908   2.075       .  S
N895        N907   1.326       .  A
N895        N911   1.320       .  A
N895       Co904   2.083       .  S
C896        C910   1.462       .  S
C896        N900   1.351       .  A
C897        C916   1.461       .  S
C897        H901   1.081       .  S
N898        C909   1.339       .  A
N898       Co908   2.090       .  S
C902        C914   1.464       .  S
C902        N918   1.348       .  A
Co904      Cl915   2.471       .  S
N905        C916   1.353       .  A
Co908      Cl915   2.432       .  S
C919        C920   1.417       .  A
C919        C924   1.403       .  A
C919       C1349   1.484       .  S
C920        C921   1.404       .  A
C920       C1415   1.482       .  S
C921        C922   1.403       .  A
C921        H926   1.084       .  S
C922        C923   1.417       .  A
C922       C1294   1.488       .  S
C923        C924   1.402       .  A
C923       C1261   1.480       .  S
C924        H925   1.084   1_565  S
C927        C928   1.415       .  A
C927        C932   1.403       .  A
C927       C1371   1.483       .  S
C928        C929   1.403       .  A
C928       C1393   1.485       .  S
C929        C930   1.406       .  A
C929       H2414   1.084       .  S
C930        C931   1.419       .  A
C930       C1239   1.484   1_554  S
C931        C932   1.405       .  A
C931       C1217   1.488   1_554  S
C932        H933   1.084       .  S
H934       C2409   1.084       .  S
C935        C936   1.417       .  A
C935        C940   1.403       .  A
C935       C1470   1.486       .  S
C936        C937   1.404       .  A
C936       C1327   1.485       .  S
C937        C938   1.405       .  A
C937        H942   1.084       .  S
C938        C939   1.417       .  A
C938       C1184   1.488       .  S
C939        C940   1.405       .  A
C939       C1206   1.481       .  S
C940       H2421   1.084       .  S
H941       C2420   1.084       .  S
C943        C944   1.418       .  A
C943        C948   1.408       .  A
C943       C1437   1.484       .  S
C944        C945   1.405       .  A
C944       C1316   1.490       .  S
C945        C946   1.405       .  A
C946        C947   1.417       .  A
C946       C1140   1.482   1_554  S
C947        C948   1.404       .  A
C947       C1162   1.491   1_554  S
C948        H949   1.084       .  S
C951        C952   1.408       .  A
C951        C956   1.409       .  A
C951       C1151   1.494       .  S
C952        C953   1.405       .  A
C952        H957   1.082       .  S
C953        C954   1.403       .  A
C953       C1106   1.479       .  S
C954        C955   1.403       .  A
C954        H958   1.083       .  S
C955        C956   1.407       .  A
C955       C1005   1.482       .  S
C956        H959   1.083       .  S
C960        C961   1.408       .  A
C960        C965   1.409       .  A
C960       C1250   1.484       .  S
C961        C962   1.402       .  A
C961        H966   1.084       .  S
C962        C963   1.398       .  A
C962       C1025   1.471       .  S
C963        C964   1.400       .  A
C963        H967   1.084       .  S
C964        C965   1.404       .  A
C964       C1084   1.473       .  S
C965        H968   1.084       .  S
C969        C970   1.406       .  A
C969        C974   1.405       .  A
C969       C1129   1.485       .  S
C970        C971   1.404       .  A
C970        H975   1.082       .  S
C971        C972   1.402       .  A
C971       C1041   1.478       .  S
C972        C973   1.403       .  A
C972        H976   1.082       .  S
C973        C974   1.403       .  A
C973       C1091   1.477       .  S
C974        H977   1.083       .  S
C978        C979   1.409       .  A
C978        C983   1.408       .  A
C978       C1228   1.491       .  S
C979        C980   1.406       .  A
C979        H984   1.083       .  S
C980        C981   1.405       .  A
C980       C1116   1.478       .  S
C981        C982   1.404       .  A
C981        H985   1.084       .  S
C982        C983   1.402       .  A
C982       C1055   1.477       .  S
C983        H986   1.083       .  S
C987        C988   1.410       .  A
C987        C992   1.409       .  A
C987       C1173   1.488       .  S
C988        C989   1.406       .  A
C988        H993   1.084       .  S
C989        C990   1.402       .  A
C989       C1020   1.478       .  S
C990        C991   1.401       .  A
C990        H994   1.084       .  S
C991        C992   1.402       .  A
C991       C1112   1.474       .  S
C992        H995   1.084       .  S
C996        C997   1.402       .  A
C996       C1001   1.402       .  A
C996       C1272   1.485       .  S
C997        C998   1.405       .  A
C997       H1002   1.082       .  S
C998        C999   1.406       .  A
C998       C1045   1.480       .  S
C999       C1000   1.407       .  A
C999       H1003   1.084       .  S
C1000      C1001   1.405       .  A
C1000      C1126   1.479       .  S
C1001      H1004   1.082       .  S
C1005      C1042   1.465       .  S
C1005      N1023   1.350       .  A
N1006      N1023   1.325       .  A
N1006      N1028   1.321       .  A
N1006     Co1043   2.081       .  S
C1007      C1045   1.459       .  S
C1007      H1052   1.081       .  S
C1007      N1032   1.336       .  A
H1008      C1049   1.082       .  S
C1009      C1013   1.462       .  S
C1009      H1038   1.081       .  S
C1009      N1033   1.336       .  A
Co1010     N1028   2.097       .  S
Co1010     N1018   2.077       .  S
Co1010     N1050   2.075       .  S
Co1010     N1026   2.100       .  S
Co1010    Cl1054   2.437       .  S
N1011      C1049   1.343       .  A
N1011      N1018   1.319       .  A
N1011     Co1012   2.088       .  S
Co1012     N1015   2.075       .  S
Co1012     N1032   2.074       .  S
Co1012     N1019   2.093       .  S
Co1012    Cl1054   2.467       .  S
C1013      C1071   1.475       .  S
C1013      N1051   1.349       .  A
N1014      N1021   1.319       .  A
N1014      N1044   1.325       .  A
N1014     Co1047   2.085       .  S
N1015      N1033   1.320       .  A
N1015      N1051   1.324       .  A
N1016      C1045   1.354       .  A
N1016      N1026   1.328       .  A
H1017      C1042   1.081       .  S
N1018      N1039   1.323       .  A
N1019      N1037   1.320       .  A
N1019      N1024   1.328       .  A
C1020      C1048   1.458       .  S
C1020      N1024   1.353       .  A
N1021      C1036   1.343       .  A
N1021     Co1043   2.089       .  S
C1022      C1025   1.456       .  S
C1022      H1056   1.082       .  S
C1022      N1050   1.337       .  A
C1025      N1046   1.351       .  A
N1026      N1032   1.320       .  A
N1027      C1053   1.339       .  A
N1027      N1029   1.320       .  A
N1027     Co1043   2.078       .  S
N1028      C1042   1.341       .  A
N1029      N1057   1.324       .  A
N1029     Co1047   2.092       .  S
H1030      C1053   1.081       .  S
H1031      C1048   1.082       .  S
N1033     Co1047   2.085       .  S
N1034      N1046   1.327       .  A
N1034      N1050   1.319       .  A
N1034     Co1043   2.088       .  S
C1035      C1049   1.462       .  S
C1035      C1062   1.472       .  S
C1035      N1039   1.348       .  A
C1036      C1055   1.463       .  S
C1036      H1040   1.082       .  S
N1037      C1048   1.339       .  A
N1037     Co1047   2.081       .  S
C1041      C1053   1.460       .  S
C1041      N1057   1.352       .  A
Co1043    Cl1054   2.467       .  S
N1044      C1055   1.349       .  A
Co1047    Cl1054   2.434       .  S
C1058      C1059   1.408       .  A
C1058      C1063   1.408       .  A
C1058      C1195   1.487       .  S
C1059      C1060   1.403       .  A
C1059      H1064   1.083       .  S
C1060      C1061   1.402       .  A
C1060      C1076   1.474       .  S
C1061      C1062   1.401       .  A
C1061      H1065   1.084       .  S
C1062      C1063   1.402       .  A
C1063      H1066   1.083       .  S
C1067      C1068   1.409       .  A
C1067      C1072   1.408       .  A
C1067      C1283   1.486       .  S
C1068      C1069   1.403       .  A
C1068      H1073   1.083       .  S
C1069      C1070   1.399       .  A
C1069      C1096   1.476       .  S
C1070      C1071   1.398       .  A
C1070      H1074   1.080       .  S
C1071      C1072   1.403       .  A
C1072      H1075   1.083       .  S
C1076      C1113   1.456       .  S
C1076      N1094   1.353       .  A
N1077      N2574   1.327   1_455  A
N1077      N1099   1.319       .  A
N1077     Co1114   2.091       .  S
C1078      C1116   1.465       .  S
C1078      H1123   1.082       .  S
C1078      N1103   1.345       .  A
H1079      C1120   1.081       .  S
C1080      C1084   1.455       .  S
C1080      H1109   1.082       .  S
C1080      N2584   1.335       .  A
Co1081     N1099   2.074       .  S
Co1081     N1089   2.089       .  S
Co1081     N1121   2.083       .  S
Co1081     N1097   2.082       .  S
Co1081    Cl1125   2.430       .  S
N1082      C2600   1.341   1_455  A
N1082      N1089   1.320       .  A
N1082     Co1083   2.082       .  S
Co1083     N1103   2.096       .  S
Co1083    Cl1125   2.472       .  S
C1084      N1122   1.352       .  A
N1085      N1092   1.320       .  A
N1085      N2595   1.326   1_455  A
N1085     Co1118   2.093       .  S
N1086      N1104   1.320       .  A
N1086      N2602   1.328   1_455  A
N1087      C1116   1.348       .  A
N1087      N1097   1.324       .  A
H1088      C1113   1.082       .  S
N1089      N2590   1.324   1_455  A
N1090      N1108   1.321       .  A
N1090      N1095   1.324       .  A
C1091      C1119   1.460       .  S
C1091      N1095   1.352       .  A
N1092      C2587   1.337   1_455  A
C1093      C1096   1.460       .  S
C1093      H1127   1.081       .  S
C1093      N1121   1.336       .  A
N1094      N2557   1.327       .  A
C1096      N1117   1.351       .  A
N1097      N1103   1.320       .  A
N1098      C1124   1.345       .  A
N1098      N1100   1.319       .  A
N1099      C2593   1.338   1_455  A
N1100      N1128   1.322       .  A
N1100     Co1118   2.078       .  S
H1101      C1124   1.082       .  S
H1102      C1119   1.081       .  S
N1104      C2560   1.335   1_455  A
N1104     Co1118   2.072       .  S
N1105      N1117   1.326       .  A
N1105      N1121   1.320       .  A
N1105     Co1114   2.081       .  S
C1106      C1120   1.462       .  S
C1106      N1110   1.351       .  A
C1107      C1126   1.461       .  S
C1107      H1111   1.081       .  S
C1107      N2572   1.337       .  A
N1108      C1119   1.338       .  A
N1108     Co1118   2.084       .  S
N1110      N2569   1.324       .  A
C1112      C1124   1.464       .  S
C1112      N1128   1.347       .  A
C1113      N2579   1.338       .  A
Co1114    Cl1125   2.470       .  S
N1115      C1126   1.352       .  A
N1115      N2565   1.326       .  A
C1120      N2562   1.341       .  A
N1122      N2566   1.328       .  A
C1129      C1130   1.407       .  A
C1129      C1134   1.407       .  A
C1130      C1131   1.397       .  A
C1130      H1143   1.083       .  S
C1131      C1132   1.399       .  A
C1131      H1144   1.084       .  S
C1132      C1133   1.400       .  A
C1132      C1135   1.438       .  S
C1133      C1134   1.398       .  A
C1133      H1145   1.084       .  S
C1134      H1146   1.083       .  S
C1135      C1136   1.205       .  T
C1136      C1137   1.438       .  S
C1137      C1142   1.401       .  A
C1138      C1139   1.397       .  A
C1138      H1147   1.083       .  S
C1139      C1140   1.406       .  A
C1139      H1148   1.083       .  S
C1141      C1142   1.399       .  A
C1141      H1149   1.083   1_556  S
C1142      H1150   1.083       .  S
C1151      C1152   1.409       .  A
C1151      C1156   1.409       .  A
C1152      C1153   1.402       .  A
C1152      H1165   1.083       .  S
C1153      C1154   1.401       .  A
C1153      H1166   1.083       .  S
C1154      C1155   1.400       .  A
C1154      C1157   1.447       .  S
C1155      C1156   1.400       .  A
C1155      H1167   1.084       .  S
C1156      H1168   1.083       .  S
C1157      C1158   1.210       .  T
C1158      C1159   1.447       .  S
C1159      C1160   1.401       .  A
C1159      C1164   1.403       .  A
C1160      C1161   1.399       .  A
C1160      H1169   1.083       .  S
C1161      C1162   1.406       .  A
C1161      H1170   1.083       .  S
C1162      C1163   1.406       .  A
C1163      C1164   1.403       .  A
C1163      H1171   1.083   1_556  S
C1164      H1172   1.083       .  S
C1173      C1174   1.408       .  A
C1173      C1178   1.407       .  A
C1174      C1175   1.398       .  A
C1174      H1187   1.083       .  S
C1175      C1176   1.399       .  A
C1175      H1188   1.084       .  S
C1176      C1177   1.402       .  A
C1176      C1179   1.445       .  S
C1177      C1178   1.403       .  A
C1177      H1189   1.083       .  S
C1178      H1190   1.083       .  S
C1179      C1180   1.209       .  T
C1180      C1181   1.445       .  S
C1181      C1182   1.402       .  A
C1181      C1186   1.401       .  A
C1182      C1183   1.401       .  A
C1182      H1191   1.083       .  S
C1183      C1184   1.407       .  A
C1183      H1192   1.083       .  S
C1184      C1185   1.405       .  A
C1185      C1186   1.400       .  A
C1185      H1193   1.083       .  S
C1186      H1194   1.083       .  S
C1195      C1196   1.408       .  A
C1195      C1200   1.408       .  A
C1196      C1197   1.396       .  A
C1196      H1209   1.083       .  S
C1197      C1198   1.398       .  A
C1197      H1210   1.084       .  S
C1198      C1199   1.400       .  A
C1198      C1201   1.440       .  S
C1199      C1200   1.400       .  A
C1199      H1211   1.083       .  S
C1200      H1212   1.083       .  S
C1201      C1202   1.206       .  T
C1202      C2683   1.440       .  S
C1203      C1204   1.401   1_655  A
C1203      C2688   1.400       .  A
C1203      C2682   1.440       .  S
C1204      C1205   1.400       .  A
C1204      H1213   1.083       .  S
C1205      C1206   1.405       .  A
C1205      H1214   1.083       .  S
C1206      C1207   1.404       .  A
C1207      C2688   1.397   1_455  A
C1207      H2695   1.083       .  S
C1208      C2683   1.400       .  A
C1208      C2687   1.397       .  A
C1208      H1216   1.084       .  S
H1215      C2687   1.083       .  S
C1217      C1218   1.406       .  A
C1217      C1222   1.406       .  A
C1218      C1219   1.400       .  A
C1218      H1231   1.083       .  S
C1219      C1220   1.401       .  A
C1219      H1232   1.083       .  S
C1220      C1221   1.401       .  A
C1220      C1223   1.445       .  S
C1221      C1222   1.401       .  A
C1221      H1233   1.083       .  S
C1222      H1234   1.083   1_556  S
C1223      C1224   1.209       .  T
C1224      C1225   1.445       .  S
C1225      C1226   1.402       .  A
C1225      C1230   1.399       .  A
C1226      C1227   1.403       .  A
C1226      H1235   1.083       .  S
C1227      C1228   1.408       .  A
C1227      H1236   1.083       .  S
C1228      C1229   1.409       .  A
C1229      C1230   1.398       .  A
C1229      H1237   1.083       .  S
C1230      H1238   1.084       .  S
C1239      C1240   1.405       .  A
C1239      C2724   1.405       .  A
C1240      C1241   1.400       .  A
C1240      H1253   1.083       .  S
C1241      C2722   1.401       .  A
C1241      H1254   1.083       .  S
C1242      C2721   1.401       .  A
C1242      C1243   1.400       .  A
C1242      C1245   1.441       .  S
C1243      C1244   1.398       .  A
C1243      H1255   1.083       .  S
C1244      C2719   1.405       .  A
C1244      H1256   1.083       .  S
C1245      C1246   1.207       .  T
C1246      C1247   1.442       .  S
C1247      C1248   1.399       .  A
C1247      C1252   1.401       .  A
C1248      C1249   1.397       .  A
C1248      H1257   1.084       .  S
C1249      C1250   1.407       .  A
C1249      H1258   1.083       .  S
C1250      C1251   1.406       .  A
C1251      C1252   1.401       .  A
C1251      H1259   1.083       .  S
C1252      H1260   1.083       .  S
C1261      C1266   1.405       .  A
C1262      C1263   1.399       .  A
C1262      H1275   1.083       .  S
C1263      H1276   1.083       .  S
C1264      C1265   1.399   1_545  A
C1265      C1266   1.396       .  A
C1265      H1277   1.084       .  S
C1266      H1278   1.083       .  S
C1267      C1268   1.205       .  T
C1268      C1269   1.438       .  S
C1269      C1270   1.400       .  A
C1269      C1274   1.399       .  A
C1270      C1271   1.398       .  A
C1271      C1272   1.407       .  A
C1271      H1280   1.083       .  S
C1272      C1273   1.407       .  A
C1273      C1274   1.397       .  A
C1273      H1281   1.083       .  S
C1274      H1282   1.084       .  S
C1283      C1284   1.407       .  A
C1283      C1288   1.408       .  A
C1284      C1285   1.398       .  A
C1284      H1297   1.083       .  S
C1285      C1286   1.399       .  A
C1285      H1298   1.084       .  S
C1286      C1287   1.400       .  A
C1286      C1289   1.440       .  S
C1287      C1288   1.399       .  A
C1287      H1299   1.083       .  S
C1288      H1300   1.083       .  S
C1289      C1290   1.206       .  T
C1290      C1291   1.440       .  S
C1291      C1292   1.401       .  A
C1291      C1296   1.399       .  A
C1292      C1293   1.400       .  A
C1292      H1301   1.083       .  S
C1293      C1294   1.406       .  A
C1293      H1302   1.083       .  S
C1294      C1295   1.407       .  A
C1295      C1296   1.397       .  A
C1295      H1303   1.083       .  S
C1296      H1304   1.084       .  S
C1305      C1306   1.410       .  A
C1305      C1310   1.408       .  A
C1306      C1307   1.404       .  A
C1306      H1319   1.083       .  S
C1307      C1308   1.402       .  A
C1307      H1320   1.083       .  S
C1308      C1309   1.400       .  A
C1308      C1311   1.449       .  S
C1309      C1310   1.400       .  A
C1310      H1322   1.083       .  S
C1311      C1312   1.211       .  T
C1312      C1313   1.449       .  S
C1313      C1318   1.402       .  A
C1314      C1315   1.401       .  A
C1314      H1323   1.083       .  S
C1315      C1316   1.405       .  A
C1315      H1324   1.083       .  S
C1317      C1318   1.402       .  A
C1317      H1325   1.083       .  S
C1318      H1326   1.083       .  S
C1327      C1328   1.405       .  A
C1327      C1332   1.406       .  A
C1328      C1329   1.401       .  A
C1328      H1341   1.083       .  S
C1329      C1330   1.402       .  A
C1329      H1342   1.083       .  S
C1330      C1331   1.399       .  A
C1330      C1333   1.440       .  S
C1331      C1332   1.396       .  A
C1331      H1343   1.084       .  S
C1332      H1344   1.083       .  S
C1333      C1334   1.206       .  T
C1334      C1335   1.441       .  S
C1335      C1336   1.399       .  A
C1335      C1340   1.400       .  A
C1336      C1337   1.398       .  A
C1336      H1345   1.084       .  S
C1337      C1338   1.408       .  A
C1337      H1346   1.083       .  S
C1338      C1339   1.408       .  A
C1339      C1340   1.400       .  A
C1339      H1347   1.083       .  S
C1340      H1348   1.083       .  S
C1349      C1350   1.405       .  A
C1350      C1351   1.399       .  A
C1350      H1363   1.083       .  S
C1351      C1352   1.401   1_565  A
C1351      H1364   1.083       .  S
C1353      C1354   1.400       .  A
C1353      H1365   1.083       .  S
C1354      H1366   1.083       .  S
C1355      C1356   1.208       .  T
C1356      C1357   1.443       .  S
C1357      C1358   1.402       .  A
C1357      C1362   1.399       .  A
C1358      C1359   1.402       .  A
C1358      H1367   1.083       .  S
C1359      C1360   1.407       .  A
C1359      H1368   1.083       .  S
C1360      C1361   1.408       .  A
C1361      C1362   1.397       .  A
C1361      H1369   1.083       .  S
C1371      C1372   1.406       .  A
C1371      C1376   1.404       .  A
C1372      C1373   1.398       .  A
C1372      H1385   1.083       .  S
C1373      C1374   1.400       .  A
C1373      H1386   1.083       .  S
C1374      C1375   1.401       .  A
C1374      C1377   1.441       .  S
C1375      C1376   1.400       .  A
C1375      H1387   1.083       .  S
C1376      H1388   1.083       .  S
C1377      C1378   1.207       .  T
C1378      C1379   1.441       .  S
C1379      C1380   1.401       .  A
C1379      C1384   1.399       .  A
C1380      C1381   1.400       .  A
C1380      H1389   1.083       .  S
C1381      C1382   1.408       .  A
C1381      H1390   1.083       .  S
C1382      C1383   1.406       .  A
C1383      C1384   1.398       .  A
C1383      H1391   1.083       .  S
C1384      H1392   1.084       .  S
C1393      C2874   1.404       .  A
C1393      C1398   1.406       .  A
C1394      C2873   1.404       .  A
C1394      C1395   1.402       .  A
C1394      H1407   1.083       .  S
C1395      C1396   1.403       .  A
C1395      H1408   1.083       .  S
C1396      C1397   1.400       .  A
C1396      C1399   1.443       .  S
C1397      C2878   1.398       .  A
C1397      H1409   1.083       .  S
C1398      C2877   1.398   1_455  A
C1398      H1410   1.083   1_455  S
C1399      C1400   1.208       .  T
C1400      C1401   1.443       .  S
C1401      C1402   1.401       .  A
C1401      C1406   1.399       .  A
C1402      C1403   1.401       .  A
C1402      H1411   1.083       .  S
C1403      C1404   1.408       .  A
C1403      H1412   1.083       .  S
C1404      C1405   1.409       .  A
C1405      C1406   1.399       .  A
C1405      H1413   1.083       .  S
C1406      H1414   1.083       .  S
C1415      C1416   1.405       .  A
C1415      C1420   1.405       .  A
C1416      C1417   1.398       .  A
C1416      H1429   1.083       .  S
C1417      C1418   1.401       .  A
C1417      H1430   1.083       .  S
C1418      C1419   1.400       .  A
C1418      C1421   1.440       .  S
C1419      C1420   1.398       .  A
C1419      H1431   1.083       .  S
C1420      H1432   1.083       .  S
C1421      C1422   1.206       .  T
C1422      C1423   1.440       .  S
C1423      C1424   1.400       .  A
C1423      C1428   1.398       .  A
C1424      C1425   1.400       .  A
C1424      H1433   1.083       .  S
C1425      C1426   1.408       .  A
C1425      H1434   1.083       .  S
C1426      C1427   1.410       .  A
C1427      C1428   1.398       .  A
C1427      H1435   1.083       .  S
C1428      H1436   1.084       .  S
C1437      C1438   1.405       .  A
C1437      C1442   1.405       .  A
C1438      C1439   1.400       .  A
C1438      H1451   1.083       .  S
C1439      C1440   1.401       .  A
C1439      H1452   1.083       .  S
C1440      C1441   1.400       .  A
C1440      C1443   1.442       .  S
C1441      C1442   1.398       .  A
C1441      H1453   1.083       .  S
C1442      H1454   1.083       .  S
C1443      C1444   1.207       .  T
C1444      C1445   1.442       .  S
C1445      C1446   1.399       .  A
C1445      C1450   1.401       .  A
C1446      C1447   1.397       .  A
C1446      H1455   1.084       .  S
C1447      C1448   1.409       .  A
C1447      H1456   1.083       .  S
C1448      C1449   1.408       .  A
C1449      C1450   1.401       .  A
C1449      H1457   1.083       .  S
C1450      H1458   1.083       .  S
C1459      C1460   1.408       .  A
C1459      C1464   1.409       .  A
C1460      C1461   1.401       .  A
C1460      H1473   1.083       .  S
C1461      C1462   1.401       .  A
C1461      H1474   1.083       .  S
C1462      C1463   1.399       .  A
C1462      C1465   1.444       .  S
C1463      C1464   1.399       .  A
C1463      H1475   1.083       .  S
C1464      H1476   1.083       .  S
C1465      C1466   1.208       .  T
C1466      C1467   1.444       .  S
C1467      C2948   1.402       .  A
C1467      C1472   1.400       .  A
C1468      C2947   1.402       .  A
C1468      C1469   1.402       .  A
C1468      H1477   1.083       .  S
C1469      C1470   1.405       .  A
C1469      H1478   1.083       .  S
C1470      C2951   1.406       .  A
C1471      C2950   1.406       .  A
C1471      C1472   1.398       .  A
C1471      H1479   1.083       .  S
C1472      H1480   1.083       .  S
C1481      C1482   1.407       .  A
C1481      C1486   1.406       .  A
C1481      C2199   1.490       .  S
C1482      C1483   1.406       .  A
C1482      H1487   1.082       .  S
C1483      C1484   1.404       .  A
C1483      C1636   1.479       .  S
C1484      C1485   1.403       .  A
C1484      H1488   1.082       .  S
C1485      C1486   1.405       .  A
C1485      C1517   1.480       .  S
C1486      H1489   1.083       .  S
C1490      C1491   1.409       .  A
C1490      C1495   1.409       .  A
C1490      C2188   1.490       .  S
C1491      C1492   1.403       .  A
C1491      H1496   1.083       .  S
C1492      C1493   1.402       .  A
C1492      C1547   1.474       .  S
C1493      C1494   1.402       .  A
C1493      H1497   1.084       .  S
C1494      C1495   1.403       .  A
C1494      C1606   1.476       .  S
C1495      H1498   1.083       .  S
C1499      C1500   1.410       .  A
C1499      C1504   1.408       .  A
C1499      C2166   1.490       .  S
C1500      C1501   1.405       .  A
C1500      H1505   1.083       .  S
C1501      C1502   1.404       .  A
C1501      C1567   1.479       .  S
C1502      C1503   1.405       .  A
C1502      H1506   1.084       .  S
C1503      C1504   1.402       .  A
C1503      C1646   1.477       .  S
C1504      H1507   1.083       .  S
C1508      C1509   1.404       .  A
C1508      C1513   1.404       .  A
C1508      C2144   1.490       .  S
C1509      C1510   1.407       .  A
C1509      H1514   1.082       .  S
C1510      C1511   1.407       .  A
C1510      C1656   1.481       .  S
C1511      C1512   1.406       .  A
C1511      H1515   1.084       .  S
C1512      C1513   1.406       .  A
C1512      C1557   1.482       .  S
C1513      H1516   1.082       .  S
C1517      C1554   1.464       .  S
N1518      N1535   1.323       .  A
N1518     Co1555   2.079       .  S
C1519      H1564   1.081       .  S
C1519      N2284   1.337   1_545  A
H1520      C1561   1.082       .  S
C1521      C1525   1.462       .  S
C1521      H1550   1.081       .  S
C1521      N1545   1.336       .  A
Co1522     N1540   2.097       .  S
Co1522     N1562   2.075       .  S
N1523      C1561   1.344       .  A
N1523      N1530   1.319       .  A
N1523     Co1524   2.091       .  S
Co1524     N1527   2.078       .  S
Co1524     N1544   2.079       .  S
Co1524     N1531   2.094       .  S
Co1524    Cl1566   2.469       .  S
C1525      C1572   1.477       .  S
C1525      N1563   1.350       .  A
N1526      N1533   1.319       .  A
N1526      N1556   1.325       .  A
N1526     Co1559   2.088       .  S
N1527      N1545   1.321       .  A
N1527      N1563   1.325       .  A
N1528      C1557   1.354       .  A
H1529      C1554   1.081       .  S
N1531      N1549   1.320       .  A
N1531      N2276   1.328       .  A
C1532      C1560   1.459       .  S
C1532      C1599   1.480       .  S
C1532      N1536   1.353       .  A
N1533      C1548   1.344       .  A
N1533     Co1555   2.090       .  S
C1534      C1537   1.457       .  S
C1534      H1568   1.082       .  S
C1534      N2302   1.337   1_545  A
N1536      N2271   1.328   1_545  A
C1537      C1581   1.473       .  S
N1538      N1544   1.321       .  A
N1539      C2305   1.338       .  A
N1539      N1541   1.320       .  A
N1539     Co1555   2.073       .  S
N1540      C1554   1.342       .  A
N1541      N2309   1.325       .  A
N1541     Co1559   2.095       .  S
H1542      C1565   1.081       .  S
H1543      C1560   1.082       .  S
N1544      C2259   1.337       .  A
N1545     Co1559   2.087       .  S
N1546      N2298   1.327       .  A
N1546     Co1555   2.088       .  S
C1547      N1551   1.348       .  A
C1548      C1567   1.463       .  S
C1548      H1552   1.082       .  S
N1549      C2300   1.339       .  A
N1549     Co1559   2.083       .  S
C1553      C1565   1.458       .  S
C1553      C1592   1.476       .  S
C1553      N1569   1.353       .  A
Co1555    Cl1566   2.468       .  S
N1556      C1567   1.350       .  A
N1558      N2286   1.327   1_545  A
Co1559    Cl1566   2.434       .  S
C1560      N2289   1.339   1_545  A
N1562      C2274   1.337       .  A
C1565      N2279   1.338   1_545  A
N1569      N2281   1.325   1_545  A
C1570      C1571   1.409       .  A
C1570      C1575   1.409       .  A
C1570      C2122   1.486       .  S
C1571      C1572   1.405       .  A
C1571      H1576   1.083       .  S
C1572      C1573   1.399       .  A
C1573      C1574   1.399       .  A
C1573      H1577   1.079       .  S
C1574      C1575   1.403       .  A
C1574      C1626   1.477       .  S
C1575      H1578   1.083       .  S
C1579      C1580   1.409       .  A
C1579      C1584   1.410       .  A
C1579      C2100   1.487       .  S
C1580      C1581   1.402       .  A
C1580      H1585   1.084       .  S
C1581      C1582   1.398       .  A
C1582      C1583   1.400       .  A
C1582      H1586   1.084       .  S
C1583      C1584   1.405       .  A
C1583      C1614   1.475       .  S
C1584      H1587   1.084       .  S
C1588      C1589   1.407       .  A
C1588      C1593   1.406       .  A
C1588      C2078   1.489       .  S
C1589      C1590   1.404       .  A
C1589      H1594   1.083       .  S
C1590      C1591   1.402       .  A
C1590      C1621   1.477       .  S
C1591      C1592   1.401       .  A
C1591      H1595   1.082       .  S
C1592      C1593   1.405       .  A
C1593      H1596   1.082       .  S
C1597      C1598   1.413       .  A
C1597      C1602   1.411       .  A
C1597      C2045   1.495       .  S
C1598      C1599   1.407       .  A
C1598      H1603   1.083       .  S
C1599      C1600   1.401       .  A
C1600      C1601   1.401       .  A
C1600      H1604   1.084       .  S
C1601      C1602   1.405       .  A
C1601      C1642   1.476       .  S
C1602      H1605   1.083       .  S
C1606      C1643   1.457       .  S
C1606      N1624   1.353       .  A
N1607      N1624   1.326       .  A
N1607      N1629   1.319       .  A
N1607     Co1644   2.092       .  S
C1608      C1646   1.466       .  S
C1608      H1653   1.082       .  S
C1608      N1633   1.345       .  A
H1609      C1650   1.081       .  S
C1610      C1614   1.456       .  S
C1610      H1639   1.082       .  S
C1610      N1634   1.336       .  A
Co1611     N1629   2.075       .  S
Co1611     N1619   2.091       .  S
Co1611     N1651   2.083       .  S
Co1611     N1627   2.078       .  S
Co1611    Cl1655   2.431       .  S
N1612      C1650   1.341       .  A
N1612      N1619   1.320       .  A
N1612     Co1613   2.081       .  S
Co1613     N1616   2.091       .  S
Co1613     N1633   2.095       .  S
Co1613     N1620   2.081       .  S
Co1613    Cl1655   2.472       .  S
C1614      N1652   1.352       .  A
N1615      N1622   1.320       .  A
N1615      N1645   1.327       .  A
N1615     Co1648   2.097       .  S
N1616      N1634   1.319       .  A
N1616      N1652   1.328       .  A
N1617      C1646   1.347       .  A
N1617      N1627   1.324       .  A
H1618      C1643   1.082       .  S
N1619      N1640   1.324       .  A
N1620      N1638   1.321       .  A
N1620      N1625   1.324       .  A
C1621      C1649   1.462       .  S
C1621      N1625   1.350       .  A
N1622      C1637   1.338       .  A
N1622     Co1644   2.079       .  S
C1623      C1626   1.461       .  S
C1623      H1657   1.081       .  S
C1623      N1651   1.336       .  A
C1626      N1647   1.351       .  A
N1627      N1633   1.319       .  A
N1628      C1654   1.345       .  A
N1628      N1630   1.319       .  A
N1628     Co1644   2.091       .  S
N1629      C1643   1.338       .  A
N1630      N1658   1.323       .  A
N1630     Co1648   2.081       .  S
H1631      C1654   1.082       .  S
H1632      C1649   1.081       .  S
N1634     Co1648   2.075       .  S
N1635      N1647   1.326       .  A
N1635      N1651   1.320       .  A
N1635     Co1644   2.083       .  S
C1636      C1650   1.462       .  S
C1636      N1640   1.351       .  A
C1637      C1656   1.461       .  S
C1637      H1641   1.081       .  S
N1638      C1649   1.339       .  A
N1638     Co1648   2.090       .  S
C1642      C1654   1.464       .  S
C1642      N1658   1.348       .  A
Co1644    Cl1655   2.471       .  S
N1645      C1656   1.353       .  A
Co1648    Cl1655   2.432       .  S
C1659      C1660   1.417       .  A
C1659      C1664   1.403       .  A
C1659      C2089   1.484       .  S
C1660      C1661   1.404       .  A
C1660      C2155   1.482       .  S
C1661      C1662   1.403       .  A
C1661      H1666   1.084       .  S
C1662      C1663   1.417       .  A
C1662      C2034   1.488       .  S
C1663      C1664   1.402       .  A
C1663      C2001   1.480       .  S
C1664      H1665   1.084       .  S
C1667      C1668   1.415       .  A
C1667      C1672   1.403       .  A
C1667      C2111   1.483       .  S
C1668      C1669   1.403       .  A
C1668      C2133   1.485       .  S
C1669      C1670   1.406       .  A
C1670      C1671   1.419       .  A
C1670      C1979   1.484   1_554  S
C1671      C1672   1.405       .  A
C1671      C1957   1.488   1_554  S
C1672      H1673   1.084       .  S
C1675      C1676   1.417       .  A
C1675      C1680   1.403       .  A
C1675      C2210   1.486       .  S
C1676      C1677   1.404       .  A
C1676      C2067   1.485       .  S
C1677      C1678   1.405       .  A
C1677      H1682   1.084       .  S
C1678      C1679   1.417       .  A
C1678      C1924   1.488       .  S
C1679      C1680   1.405       .  A
C1679      C1946   1.481       .  S
C1683      C1684   1.418       .  A
C1683      C1688   1.408       .  A
C1683      C2177   1.484       .  S
C1684      C1685   1.405       .  A
C1684      C2056   1.490       .  S
C1685      C1686   1.405       .  A
C1685      H2430   1.084       .  S
C1686      C1687   1.417       .  A
C1686      C1880   1.482   1_554  S
C1687      C1688   1.404       .  A
C1687      C1902   1.491   1_554  S
C1688      H1689   1.084       .  S
H1690      C2425   1.084       .  S
C1691      C1692   1.408       .  A
C1691      C1696   1.409       .  A
C1691      C1891   1.494       .  S
C1692      C1693   1.405       .  A
C1692      H1697   1.082       .  S
C1693      C1694   1.403       .  A
C1693      C1846   1.479       .  S
C1694      C1695   1.403       .  A
C1694      H1698   1.083       .  S
C1695      C1696   1.407       .  A
C1695      C1745   1.482       .  S
C1696      H1699   1.083       .  S
C1700      C1701   1.408       .  A
C1700      C1705   1.409       .  A
C1700      C1990   1.484       .  S
C1701      C1702   1.402       .  A
C1701      H1706   1.084       .  S
C1702      C1703   1.398       .  A
C1702      C1765   1.471       .  S
C1703      C1704   1.400       .  A
C1703      H1707   1.084       .  S
C1704      C1705   1.404       .  A
C1704      C1824   1.473       .  S
C1705      H1708   1.084       .  S
C1709      C1710   1.406       .  A
C1709      C1714   1.405       .  A
C1709      C1869   1.485       .  S
C1710      C1711   1.404       .  A
C1710      H1715   1.082       .  S
C1711      C1712   1.402       .  A
C1711      C1781   1.478       .  S
C1712      C1713   1.403       .  A
C1712      H1716   1.082       .  S
C1713      C1714   1.403       .  A
C1713      C1831   1.477       .  S
C1714      H1717   1.083       .  S
C1718      C1719   1.409       .  A
C1718      C1723   1.408       .  A
C1718      C1968   1.491       .  S
C1719      C1720   1.406       .  A
C1719      H1724   1.083       .  S
C1720      C1721   1.405       .  A
C1720      C1856   1.478       .  S
C1721      C1722   1.404       .  A
C1721      H1725   1.084       .  S
C1722      C1723   1.402       .  A
C1722      C1795   1.477       .  S
C1723      H1726   1.083       .  S
C1727      C1728   1.410       .  A
C1727      C1732   1.409       .  A
C1727      C1913   1.488       .  S
C1728      C1729   1.406       .  A
C1728      H1733   1.084       .  S
C1729      C1730   1.402       .  A
C1729      C1760   1.478       .  S
C1730      C1731   1.401       .  A
C1730      H1734   1.084       .  S
C1731      C1732   1.402       .  A
C1731      C1852   1.474       .  S
C1732      H1735   1.084       .  S
C1736      C1737   1.402       .  A
C1736      C1741   1.402       .  A
C1736      C2012   1.485       .  S
C1737      C1738   1.405       .  A
C1737      H1742   1.082       .  S
C1738      C1739   1.406       .  A
C1738      C1785   1.480       .  S
C1739      C1740   1.407       .  A
C1739      H1743   1.084       .  S
C1740      C1741   1.405       .  A
C1740      C1866   1.479       .  S
C1741      H1744   1.082       .  S
C1745      C1782   1.465       .  S
C1745      N1763   1.350       .  A
N1746      N1763   1.325       .  A
N1746      N1768   1.321       .  A
N1746     Co1783   2.081       .  S
C1747      C1785   1.459       .  S
C1747      H1792   1.081       .  S
C1747      N1772   1.336       .  A
H1748      C1789   1.082       .  S
C1749      C1753   1.462       .  S
C1749      H1778   1.081       .  S
C1749      N1773   1.336       .  A
Co1750     N1768   2.097       .  S
Co1750     N1758   2.077       .  S
Co1750     N1790   2.075       .  S
Co1750     N1766   2.100       .  S
Co1750    Cl1794   2.437       .  S
N1751      C1789   1.343       .  A
N1751      N1758   1.319       .  A
N1751     Co1752   2.088       .  S
Co1752     N1755   2.075       .  S
Co1752     N1772   2.074       .  S
Co1752     N1759   2.093       .  S
Co1752    Cl1794   2.467       .  S
C1753      C1811   1.475       .  S
C1753      N1791   1.349       .  A
N1754      N1761   1.319       .  A
N1754      N1784   1.325       .  A
N1754     Co1787   2.085       .  S
N1755      N1773   1.320       .  A
N1755      N1791   1.324       .  A
N1756      C1785   1.354       .  A
N1756      N1766   1.328       .  A
H1757      C1782   1.081       .  S
N1758      N1779   1.323       .  A
N1759      N1777   1.320       .  A
N1759      N1764   1.328       .  A
C1760      C1788   1.458       .  S
C1760      N1764   1.353       .  A
N1761      C1776   1.343       .  A
N1761     Co1783   2.089       .  S
C1762      C1765   1.456       .  S
C1762      H1796   1.082       .  S
C1762      N1790   1.337       .  A
C1765      N1786   1.351       .  A
N1766      N1772   1.320       .  A
N1767      C1793   1.339       .  A
N1767      N1769   1.320       .  A
N1767     Co1783   2.078       .  S
N1768      C1782   1.341       .  A
N1769      N1797   1.324       .  A
N1769     Co1787   2.092       .  S
H1770      C1793   1.081       .  S
H1771      C1788   1.082       .  S
N1773     Co1787   2.085       .  S
N1774      N1786   1.327       .  A
N1774      N1790   1.319       .  A
N1774     Co1783   2.088       .  S
C1775      C1789   1.462       .  S
C1775      C1802   1.472       .  S
C1775      N1779   1.348       .  A
C1776      C1795   1.463       .  S
C1776      H1780   1.082       .  S
N1777      C1788   1.339       .  A
N1777     Co1787   2.081       .  S
C1781      C1793   1.460       .  S
C1781      N1797   1.352       .  A
Co1783    Cl1794   2.467       .  S
N1784      C1795   1.349       .  A
Co1787    Cl1794   2.434       .  S
C1798      C1799   1.408       .  A
C1798      C1803   1.408       .  A
C1798      C1935   1.487       .  S
C1799      C1800   1.403       .  A
C1799      H1804   1.083       .  S
C1800      C1801   1.402       .  A
C1800      C1816   1.474       .  S
C1801      C1802   1.401       .  A
C1801      H1805   1.084       .  S
C1802      C1803   1.402       .  A
C1803      H1806   1.083       .  S
C1807      C1808   1.409       .  A
C1807      C1812   1.408       .  A
C1807      C2023   1.486       .  S
C1808      C1809   1.403       .  A
C1808      H1813   1.083       .  S
C1809      C1810   1.399       .  A
C1809      C1836   1.476       .  S
C1810      C1811   1.398       .  A
C1810      H1814   1.080       .  S
C1811      C1812   1.403       .  A
C1812      H1815   1.083       .  S
C1816      C1853   1.456       .  S
C1816      N1834   1.353       .  A
N1817      N1839   1.319       .  A
N1817     Co1854   2.091       .  S
C1818      C1856   1.465       .  S
C1818      H1863   1.082       .  S
C1818      N1843   1.345       .  A
H1819      C1860   1.081       .  S
C1820      C1824   1.455       .  S
C1820      H1849   1.082       .  S
Co1821     N1839   2.074       .  S
Co1821     N1829   2.089       .  S
Co1821     N1861   2.083       .  S
Co1821     N1837   2.082       .  S
Co1821    Cl1865   2.430       .  S
N1822      N1829   1.320       .  A
N1822     Co1823   2.082       .  S
Co1823     N2566   2.091       .  S
Co1823     N1843   2.096       .  S
Co1823     N2570   2.085       .  S
Co1823    Cl1865   2.472       .  S
C1824      N1862   1.352       .  A
N1825      N1832   1.320   1_545  A
N1825     Co1858   2.093       .  S
N1826      N1844   1.320   1_565  A
N1826     Co2563   2.091       .  S
N1827      C1856   1.348       .  A
N1827      N1837   1.324       .  A
H1828      C1853   1.082       .  S
N1830      N1848   1.321   1_565  A
N1830      N1835   1.324       .  A
N1830     Co2563   2.085       .  S
C1831      C1859   1.460       .  S
C1831      N1835   1.352   1_545  A
N1832     Co2594   2.077       .  S
C1833      C1836   1.460       .  S
C1833      H1867   1.081       .  S
C1833      N1861   1.336       .  A
C1836      N1857   1.351       .  A
N1837      N1843   1.320       .  A
N1838      C1864   1.345       .  A
N1838      N1840   1.319   1_565  A
N1838     Co2594   2.091       .  S
N1840      N1868   1.322       .  A
N1840     Co1858   2.078       .  S
H1841      C1864   1.082       .  S
H1842      C1859   1.081       .  S
N1844     Co1858   2.072       .  S
N1845      N1857   1.326       .  A
N1845      N1861   1.320       .  A
N1845     Co1854   2.081       .  S
C1846      C1860   1.462       .  S
C1846      N1850   1.351       .  A
C1847      C1866   1.461   1_565  S
C1847      H1851   1.081       .  S
N1848      C1859   1.338       .  A
N1848     Co1858   2.084       .  S
C1852      C1864   1.464   1_545  S
C1852      N1868   1.347       .  A
Co1854     N2572   2.077       .  S
Co1854     N2578   2.091       .  S
Co1854    Cl1865   2.470       .  S
N1855      C1866   1.352       .  A
Co1858    Cl2605   2.431   1_545  S
Cl1865    Co2598   2.431       .  S
C1869      C1870   1.407       .  A
C1869      C1874   1.407       .  A
C1870      C1871   1.397       .  A
C1870      H1883   1.083       .  S
C1871      C1872   1.399       .  A
C1871      H1884   1.084       .  S
C1872      C1873   1.400   1_545  A
C1872      C1875   1.438       .  S
C1873      C1874   1.398   1_565  A
C1873      H1885   1.084       .  S
C1874      H1886   1.083   1_545  S
C1875      C1876   1.205       .  T
C1876      C1877   1.438   1_545  S
C1877      C2618   1.400       .  A
C1877      C1882   1.401   1_565  A
C1878      C2617   1.400       .  A
C1878      C1879   1.397       .  A
C1878      H1887   1.083       .  S
C1879      C1880   1.406       .  A
C1879      H1888   1.083       .  S
C1880      C2621   1.404       .  A
C1881      C2620   1.404   1_545  A
C1881      C1882   1.399       .  A
C1881      H1889   1.083   1_556  S
C1882      H1890   1.083       .  S
C1891      C1892   1.409       .  A
C1891      C1896   1.409       .  A
C1892      C1893   1.402       .  A
C1892      H1905   1.083       .  S
C1893      C1894   1.401       .  A
C1893      H1906   1.083       .  S
C1894      C1895   1.400       .  A
C1894      C1897   1.447       .  S
C1895      C1896   1.400       .  A
C1895      H1907   1.084       .  S
C1896      H1908   1.083       .  S
C1897      C1898   1.210       .  T
C1898      C1899   1.447       .  S
C1899      C1900   1.401       .  A
C1899      C1904   1.403       .  A
C1900      C1901   1.399       .  A
C1900      H1909   1.083       .  S
C1901      C1902   1.406       .  A
C1901      H1910   1.083       .  S
C1902      C1903   1.406       .  A
C1903      C1904   1.403       .  A
C1903      H1911   1.083   1_556  S
C1904      H1912   1.083       .  S
C1913      C1914   1.408       .  A
C1913      C1918   1.407       .  A
C1914      C1915   1.398       .  A
C1914      H1927   1.083       .  S
C1915      C1916   1.399       .  A
C1915      H1928   1.084       .  S
C1916      C1917   1.402       .  A
C1916      C1919   1.445       .  S
C1917      C1918   1.403       .  A
C1917      H1929   1.083       .  S
C1918      H1930   1.083       .  S
C1919      C1920   1.209       .  T
C1920      C1921   1.445       .  S
C1921      C1922   1.402       .  A
C1921      C1926   1.401       .  A
C1922      C1923   1.401       .  A
C1922      H1931   1.083       .  S
C1923      C1924   1.407       .  A
C1923      H1932   1.083       .  S
C1924      C1925   1.405       .  A
C1925      C1926   1.400       .  A
C1925      H1933   1.083       .  S
C1926      H1934   1.083       .  S
C1935      C1936   1.408       .  A
C1935      C1940   1.408       .  A
C1936      C1937   1.396       .  A
C1936      H1949   1.083       .  S
C1937      C1938   1.398       .  A
C1937      H1950   1.084       .  S
C1938      C1939   1.400       .  A
C1938      C1941   1.440       .  S
C1939      C1940   1.400       .  A
C1939      H1951   1.083       .  S
C1940      H1952   1.083       .  S
C1941      C1942   1.206       .  T
C1943      C1944   1.401       .  A
C1944      C1945   1.400       .  A
C1944      H1953   1.083       .  S
C1945      C1946   1.405       .  A
C1945      H1954   1.083       .  S
C1946      C1947   1.404       .  A
C1948      H1956   1.084       .  S
C1957      C1958   1.406       .  A
C1957      C1962   1.406       .  A
C1958      C1959   1.400       .  A
C1958      H1971   1.083       .  S
C1959      C1960   1.401       .  A
C1959      H1972   1.083       .  S
C1960      C1961   1.401       .  A
C1960      C1963   1.445       .  S
C1961      C1962   1.401       .  A
C1961      H1973   1.083       .  S
C1962      H1974   1.083   1_556  S
C1963      C1964   1.209       .  T
C1964      C1965   1.445       .  S
C1965      C1966   1.402       .  A
C1965      C1970   1.399       .  A
C1966      C1967   1.403       .  A
C1966      H1975   1.083       .  S
C1967      C1968   1.408       .  A
C1967      H1976   1.083       .  S
C1968      C1969   1.409       .  A
C1969      C1970   1.398       .  A
C1969      H1977   1.083       .  S
C1970      H1978   1.084       .  S
C1979      C1980   1.405       .  A
C1980      C1981   1.400       .  A
C1980      H1993   1.083       .  S
C1981      H1994   1.083       .  S
C1982      C1983   1.400   1_455  A
C1982      C1985   1.441   1_455  S
C1983      C1984   1.398   1_655  A
C1983      H1995   1.083       .  S
C1984      H1996   1.083       .  S
C1985      C1986   1.207       .  T
C1986      C1987   1.442       .  S
C1987      C1988   1.399       .  A
C1987      C1992   1.401       .  A
C1988      C1989   1.397       .  A
C1988      H1997   1.084       .  S
C1989      C1990   1.407       .  A
C1989      H1998   1.083       .  S
C1990      C1991   1.406       .  A
C1991      C1992   1.401       .  A
C1991      H1999   1.083       .  S
C1992      H2000   1.083       .  S
C2001      C2742   1.404       .  A
C2001      C2006   1.405       .  A
C2002      C2741   1.404   1_545  A
C2002      C2003   1.399       .  A
C2002      H2015   1.083       .  S
C2003      C2744   1.401       .  A
C2003      H2016   1.083       .  S
C2004      C2743   1.401       .  A
C2004      C2005   1.399       .  A
C2004      C2747   1.438       .  S
C2005      C2006   1.396       .  A
C2005      H2017   1.084       .  S
C2006      H2018   1.083       .  S
C2007      C2744   1.438       .  S
C2007      C2008   1.205       .  T
C2008      C2009   1.438       .  S
C2009      C2010   1.400       .  A
C2009      C2014   1.399       .  A
C2010      C2011   1.398       .  A
C2010      H2759   1.084   1_545  S
C2011      C2012   1.407       .  A
C2011      H2020   1.083   1_545  S
C2012      C2013   1.407       .  A
C2013      C2014   1.397       .  A
C2013      H2021   1.083       .  S
C2014      H2022   1.083       .  S
H2019      C2750   1.084       .  S
C2023      C2024   1.407       .  A
C2023      C2028   1.408       .  A
C2024      C2025   1.398       .  A
C2024      H2037   1.083       .  S
C2025      C2026   1.399       .  A
C2025      H2038   1.084       .  S
C2026      C2027   1.400       .  A
C2026      C2029   1.440       .  S
C2027      C2028   1.399       .  A
C2027      H2039   1.083       .  S
C2028      H2040   1.083       .  S
C2029      C2030   1.206       .  T
C2030      C2031   1.440       .  S
C2031      C2032   1.401       .  A
C2031      C2036   1.399       .  A
C2032      C2033   1.400       .  A
C2032      H2041   1.083       .  S
C2033      C2034   1.406       .  A
C2033      H2042   1.083       .  S
C2034      C2035   1.407       .  A
C2035      C2036   1.397       .  A
C2035      H2043   1.083       .  S
C2036      H2044   1.084       .  S
C2045      C2046   1.410       .  A
C2045      C2050   1.408       .  A
C2046      C2047   1.404       .  A
C2046      H2059   1.083       .  S
C2047      C2048   1.402       .  A
C2047      H2060   1.083       .  S
C2048      C2049   1.400       .  A
C2048      C2051   1.449       .  S
C2049      C2050   1.400       .  A
C2049      H2801   1.084   1_545  S
C2050      H2062   1.083       .  S
C2051      C2052   1.211       .  T
C2052      C2053   1.449       .  S
C2053      C2794   1.402   1_545  A
C2053      C2058   1.402       .  A
C2054      C2793   1.402       .  A
C2054      C2055   1.401       .  A
C2054      H2063   1.083       .  S
C2055      C2056   1.405       .  A
C2055      H2064   1.083       .  S
C2056      C2797   1.407       .  A
C2057      C2796   1.407       .  A
C2057      C2058   1.402   1_565  A
C2057      H2065   1.083       .  S
C2058      H2066   1.083       .  S
H2061      C2789   1.084       .  S
C2067      C2068   1.405       .  A
C2067      C2072   1.406       .  A
C2068      C2069   1.401       .  A
C2068      H2081   1.083       .  S
C2069      C2070   1.402       .  A
C2069      H2082   1.083       .  S
C2070      C2071   1.399       .  A
C2070      C2073   1.440       .  S
C2071      C2072   1.396       .  A
C2071      H2083   1.084       .  S
C2072      H2084   1.083       .  S
C2073      C2074   1.206       .  T
C2074      C2075   1.441       .  S
C2075      C2076   1.399       .  A
C2075      C2080   1.400       .  A
C2076      C2077   1.398       .  A
C2076      H2085   1.084       .  S
C2077      C2078   1.408       .  A
C2077      H2086   1.083       .  S
C2078      C2079   1.408       .  A
C2079      C2080   1.400       .  A
C2079      H2087   1.083       .  S
C2080      H2088   1.083       .  S
C2089      C2090   1.405       .  A
C2089      C2834   1.405       .  A
C2090      C2091   1.399       .  A
C2090      H2103   1.083       .  S
C2091      C2092   1.401       .  A
C2091      H2104   1.083       .  S
C2092      C2833   1.401       .  A
C2092      C2835   1.443       .  S
C2093      C2832   1.401       .  A
C2093      C2094   1.400       .  A
C2093      H2105   1.083       .  S
C2094      C2829   1.405   1_545  A
C2094      H2106   1.083       .  S
C2095      C2832   1.443       .  S
C2095      C2096   1.208       .  T
C2096      C2097   1.443       .  S
C2097      C2098   1.402       .  A
C2097      C2102   1.399       .  A
C2098      C2099   1.402       .  A
C2098      H2107   1.083       .  S
C2099      C2100   1.407       .  A
C2099      H2108   1.083       .  S
C2100      C2101   1.408       .  A
C2101      C2102   1.397       .  A
C2101      H2109   1.083       .  S
C2102      H2850   1.084   1_545  S
H2110      C2842   1.084       .  S
C2111      C2112   1.406       .  A
C2111      C2116   1.404       .  A
C2112      C2113   1.398       .  A
C2112      H2125   1.083       .  S
C2113      C2114   1.400       .  A
C2113      H2126   1.083       .  S
C2114      C2115   1.401       .  A
C2114      C2117   1.441       .  S
C2115      C2116   1.400       .  A
C2115      H2127   1.083       .  S
C2116      H2128   1.083       .  S
C2117      C2118   1.207       .  T
C2118      C2119   1.441       .  S
C2119      C2120   1.401       .  A
C2119      C2124   1.399       .  A
C2120      C2121   1.400       .  A
C2120      H2129   1.083       .  S
C2121      C2122   1.408       .  A
C2121      H2130   1.083       .  S
C2122      C2123   1.406       .  A
C2123      C2124   1.398       .  A
C2123      H2131   1.083       .  S
C2124      H2132   1.084       .  S
C2133      C2138   1.406       .  A
C2134      C2135   1.402       .  A
C2134      H2147   1.083       .  S
C2135      C2136   1.403   1_455  A
C2135      H2148   1.083       .  S
C2136      C2137   1.400       .  A
C2136      C2139   1.443       .  S
C2137      H2149   1.083       .  S
C2138      H2150   1.083       .  S
C2139      C2140   1.208       .  T
C2140      C2141   1.443       .  S
C2141      C2142   1.401       .  A
C2141      C2146   1.399       .  A
C2142      C2143   1.401       .  A
C2142      H2151   1.083       .  S
C2143      C2144   1.408       .  A
C2143      H2152   1.083       .  S
C2144      C2145   1.409       .  A
C2145      C2146   1.399       .  A
C2145      H2153   1.083       .  S
C2146      H2154   1.083       .  S
C2155      C2156   1.405       .  A
C2155      C2160   1.405       .  A
C2156      C2157   1.398       .  A
C2156      H2169   1.083       .  S
C2157      C2158   1.400       .  A
C2157      H2170   1.083       .  S
C2158      C2159   1.400       .  A
C2158      C2161   1.440       .  S
C2159      C2160   1.398       .  A
C2159      H2171   1.083       .  S
C2160      H2172   1.083       .  S
C2161      C2162   1.206       .  T
C2162      C2163   1.440       .  S
C2163      C2164   1.400       .  A
C2163      C2168   1.398       .  A
C2164      C2165   1.400       .  A
C2164      H2173   1.083       .  S
C2165      C2166   1.408       .  A
C2165      H2174   1.083       .  S
C2166      C2167   1.410       .  A
C2167      C2168   1.398       .  A
C2167      H2175   1.083       .  S
C2168      H2176   1.084       .  S
C2177      C2178   1.405       .  A
C2177      C2182   1.405       .  A
C2178      C2179   1.400       .  A
C2178      H2191   1.083       .  S
C2179      C2180   1.401       .  A
C2179      H2192   1.083       .  S
C2180      C2181   1.401       .  A
C2180      C2183   1.442       .  S
C2181      C2182   1.398       .  A
C2181      H2193   1.083       .  S
C2182      H2194   1.083       .  S
C2183      C2184   1.207       .  T
C2184      C2185   1.442       .  S
C2185      C2186   1.399       .  A
C2185      C2190   1.401       .  A
C2186      C2187   1.397       .  A
C2186      H2195   1.084       .  S
C2187      C2188   1.409       .  A
C2187      H2196   1.083       .  S
C2188      C2189   1.408       .  A
C2189      C2190   1.401       .  A
C2189      H2197   1.083       .  S
C2190      H2198   1.083       .  S
C2199      C2200   1.408       .  A
C2199      C2204   1.409       .  A
C2200      C2201   1.401       .  A
C2200      H2213   1.083       .  S
C2201      C2202   1.401       .  A
C2201      H2214   1.083       .  S
C2202      C2203   1.399       .  A
C2202      C2205   1.444       .  S
C2203      C2204   1.399       .  A
C2203      H2215   1.083       .  S
C2204      H2216   1.083       .  S
C2205      C2206   1.208       .  T
C2206      C2207   1.444   1_655  S
C2207      C2212   1.400   1_455  A
C2208      C2209   1.402       .  A
C2208      H2217   1.083       .  S
C2209      C2210   1.405       .  A
C2209      H2218   1.083       .  S
C2211      C2212   1.398   1_455  A
C2211      H2219   1.083       .  S
C2212      H2220   1.083       .  S
C2221      C2222   1.407       .  A
C2221      C2226   1.406       .  A
C2221      C2939   1.490       .  S
C2222      C2223   1.406       .  A
C2222      H2227   1.082       .  S
C2223      C2224   1.404       .  A
C2223      C2376   1.479       .  S
C2224      C2225   1.403       .  A
C2224      H2228   1.082       .  S
C2225      C2226   1.405       .  A
C2225      C2257   1.480       .  S
C2226      H2229   1.083       .  S
C2230      C2231   1.409       .  A
C2230      C2235   1.409       .  A
C2230      C2928   1.490       .  S
C2231      C2232   1.403       .  A
C2231      H2236   1.083       .  S
C2232      C2233   1.402       .  A
C2232      C2287   1.474       .  S
C2233      C2234   1.402       .  A
C2233      H2237   1.084       .  S
C2234      C2235   1.403       .  A
C2234      C2346   1.476       .  S
C2235      H2238   1.083       .  S
C2239      C2240   1.410       .  A
C2239      C2244   1.408       .  A
C2239      C2906   1.490       .  S
C2240      C2241   1.405       .  A
C2240      H2245   1.083       .  S
C2241      C2242   1.404       .  A
C2241      C2307   1.479       .  S
C2242      C2243   1.405       .  A
C2242      H2246   1.084       .  S
C2243      C2244   1.402       .  A
C2243      C2386   1.477       .  S
C2244      H2247   1.083       .  S
C2248      C2249   1.404       .  A
C2248      C2253   1.404       .  A
C2248      C2884   1.490       .  S
C2249      C2250   1.407       .  A
C2249      H2254   1.082       .  S
C2250      C2251   1.407       .  A
C2250      C2396   1.481       .  S
C2251      C2252   1.406       .  A
C2251      H2255   1.084       .  S
C2252      C2253   1.406       .  A
C2252      C2297   1.482       .  S
C2253      H2256   1.082       .  S
C2257      C2294   1.464       .  S
N2258      N2275   1.323       .  A
N2258     Co2295   2.079       .  S
C2259      H2304   1.081       .  S
H2260      C2301   1.082       .  S
C2261      C2265   1.462       .  S
C2261      H2290   1.081       .  S
C2261      N2285   1.336       .  A
Co2262     N2280   2.097       .  S
Co2262     N2302   2.075       .  S
N2263      C2301   1.344       .  A
N2263      N2270   1.319       .  A
N2263     Co2264   2.091       .  S
Co2264     N2267   2.078       .  S
Co2264     N2284   2.079       .  S
Co2264     N2271   2.094       .  S
Co2264    Cl2306   2.469       .  S
C2265      C2312   1.477       .  S
C2265      N2303   1.350       .  A
N2266      N2273   1.319       .  A
N2266      N2296   1.325       .  A
N2266     Co2299   2.088       .  S
N2267      N2285   1.321       .  A
N2267      N2303   1.325       .  A
N2268      C2297   1.354       .  A
H2269      C2294   1.081       .  S
N2271      N2289   1.320       .  A
C2272      C2300   1.459       .  S
C2272      C2339   1.480       .  S
C2272      N2276   1.353       .  A
N2273      C2288   1.344       .  A
N2273     Co2295   2.090       .  S
C2274      C2277   1.457       .  S
C2274      H2308   1.082       .  S
C2277      C2321   1.473       .  S
N2278      N2284   1.321       .  A
N2279      N2281   1.320       .  A
N2279     Co2295   2.073       .  S
N2280      C2294   1.342       .  A
N2281     Co2299   2.095       .  S
H2282      C2305   1.081       .  S
H2283      C2300   1.082       .  S
N2285     Co2299   2.087       .  S
N2286     Co2295   2.088       .  S
C2287      N2291   1.348       .  A
C2288      C2307   1.463       .  S
C2288      H2292   1.082       .  S
N2289     Co2299   2.083       .  S
C2293      C2305   1.458       .  S
C2293      C2332   1.476       .  S
C2293      N2309   1.353       .  A
Co2295    Cl2306   2.468       .  S
N2296      C2307   1.350       .  A
Co2299    Cl2306   2.434       .  S
C2310      C2311   1.409       .  A
C2310      C2315   1.409       .  A
C2310      C2862   1.486       .  S
C2311      C2312   1.405       .  A
C2311      H2316   1.083       .  S
C2312      C2313   1.399       .  A
C2313      C2314   1.399       .  A
C2313      H2317   1.079       .  S
C2314      C2315   1.403       .  A
C2314      C2366   1.477       .  S
C2315      H2318   1.083       .  S
C2319      C2320   1.409       .  A
C2319      C2324   1.410       .  A
C2319      C2840   1.487       .  S
C2320      C2321   1.402       .  A
C2320      H2325   1.084       .  S
C2321      C2322   1.398       .  A
C2322      C2323   1.400       .  A
C2322      H2326   1.084       .  S
C2323      C2324   1.405       .  A
C2323      C2354   1.475       .  S
C2324      H2327   1.084       .  S
C2328      C2329   1.407       .  A
C2328      C2333   1.406       .  A
C2328      C2818   1.489       .  S
C2329      C2330   1.404       .  A
C2329      H2334   1.083       .  S
C2330      C2331   1.402       .  A
C2330      C2361   1.477       .  S
C2331      C2332   1.401       .  A
C2331      H2335   1.082       .  S
C2332      C2333   1.405       .  A
C2333      H2336   1.082       .  S
C2337      C2338   1.413       .  A
C2337      C2342   1.411       .  A
C2337      C2785   1.495       .  S
C2338      C2339   1.407       .  A
C2338      H2343   1.083       .  S
C2339      C2340   1.401       .  A
C2340      C2341   1.401       .  A
C2340      H2344   1.084       .  S
C2341      C2342   1.405       .  A
C2341      C2382   1.476       .  S
C2342      H2345   1.083       .  S
C2346      C2383   1.457       .  S
C2346      N2364   1.353       .  A
N2347      N2364   1.326       .  A
N2347      N2369   1.319       .  A
N2347     Co2384   2.092       .  S
C2348      C2386   1.466       .  S
C2348      H2393   1.082       .  S
C2348      N2373   1.345       .  A
H2349      C2390   1.081       .  S
C2350      C2354   1.456       .  S
C2350      H2379   1.082       .  S
C2350      N2374   1.336       .  A
Co2351     N2369   2.075       .  S
Co2351     N2359   2.091       .  S
Co2351     N2391   2.083       .  S
Co2351     N2367   2.078       .  S
Co2351    Cl2395   2.431       .  S
N2352      C2390   1.341       .  A
N2352      N2359   1.320       .  A
N2352     Co2353   2.081       .  S
Co2353     N2356   2.091       .  S
Co2353     N2373   2.095       .  S
Co2353     N2360   2.081       .  S
Co2353    Cl2395   2.472       .  S
C2354      N2392   1.352       .  A
N2355      N2362   1.320       .  A
N2355      N2385   1.326       .  A
N2355     Co2388   2.097       .  S
N2356      N2374   1.319       .  A
N2356      N2392   1.328       .  A
N2357      C2386   1.347       .  A
N2357      N2367   1.324       .  A
H2358      C2383   1.082       .  S
N2359      N2380   1.324       .  A
N2360      N2378   1.321       .  A
N2360      N2365   1.324       .  A
C2361      C2389   1.462       .  S
C2361      N2365   1.350       .  A
N2362      C2377   1.338       .  A
N2362     Co2384   2.079       .  S
C2363      C2366   1.461       .  S
C2363      H2397   1.081       .  S
C2363      N2391   1.336       .  A
C2366      N2387   1.351       .  A
N2367      N2373   1.319       .  A
N2368      C2394   1.345       .  A
N2368      N2370   1.319       .  A
N2368     Co2384   2.091       .  S
N2369      C2383   1.338       .  A
N2370      N2398   1.323       .  A
N2370     Co2388   2.081       .  S
H2371      C2394   1.082       .  S
H2372      C2389   1.081       .  S
N2374     Co2388   2.075       .  S
N2375      N2387   1.326       .  A
N2375      N2391   1.320       .  A
N2375     Co2384   2.083       .  S
C2376      C2390   1.462       .  S
C2376      N2380   1.351       .  A
C2377      C2396   1.461       .  S
C2377      H2381   1.081       .  S
N2378      C2389   1.339       .  A
N2378     Co2388   2.090       .  S
C2382      C2394   1.464       .  S
C2382      N2398   1.348       .  A
Co2384    Cl2395   2.471       .  S
N2385      C2396   1.353       .  A
Co2388    Cl2395   2.432       .  S
C2399      C2400   1.417       .  A
C2399      C2404   1.403       .  A
C2399      C2829   1.484       .  S
C2400      C2401   1.404       .  A
C2400      C2895   1.482       .  S
C2401      C2402   1.403       .  A
C2401      H2406   1.084       .  S
C2402      C2403   1.417       .  A
C2402      C2774   1.488       .  S
C2403      C2404   1.402       .  A
C2403      C2741   1.480       .  S
C2404      H2405   1.084   1_565  S
C2407      C2408   1.415       .  A
C2407      C2412   1.403       .  A
C2407      C2851   1.483       .  S
C2408      C2409   1.403       .  A
C2408      C2873   1.485       .  S
C2409      C2410   1.406       .  A
C2410      C2411   1.419       .  A
C2410      C2719   1.484   1_554  S
C2411      C2412   1.405       .  A
C2411      C2697   1.488   1_554  S
C2412      H2413   1.084       .  S
C2415      C2416   1.417       .  A
C2415      C2420   1.403       .  A
C2415      C2950   1.486       .  S
C2416      C2417   1.404       .  A
C2416      C2807   1.485       .  S
C2417      C2418   1.405       .  A
C2417      H2422   1.084       .  S
C2418      C2419   1.417       .  A
C2418      C2664   1.488       .  S
C2419      C2420   1.405       .  A
C2419      C2686   1.481       .  S
C2423      C2424   1.418       .  A
C2423      C2428   1.408       .  A
C2423      C2917   1.484       .  S
C2424      C2425   1.405       .  A
C2424      C2796   1.490       .  S
C2425      C2426   1.405       .  A
C2426      C2427   1.417       .  A
C2426      C2620   1.482   1_554  S
C2427      C2428   1.404       .  A
C2427      C2642   1.491   1_554  S
C2428      H2429   1.084       .  S
C2431      C2432   1.408       .  A
C2431      C2436   1.409       .  A
C2431      C2631   1.494       .  S
C2432      C2433   1.405       .  A
C2432      H2437   1.082       .  S
C2433      C2434   1.403       .  A
C2433      C2586   1.479       .  S
C2434      C2435   1.403       .  A
C2434      H2438   1.083       .  S
C2435      C2436   1.407       .  A
C2435      C2485   1.482       .  S
C2436      H2439   1.083       .  S
C2440      C2441   1.408       .  A
C2440      C2445   1.409       .  A
C2440      C2730   1.484       .  S
C2441      C2442   1.402       .  A
C2441      H2446   1.084       .  S
C2442      C2443   1.398       .  A
C2442      C2505   1.471       .  S
C2443      C2444   1.400       .  A
C2443      H2447   1.084       .  S
C2444      C2445   1.404       .  A
C2444      C2564   1.473       .  S
C2445      H2448   1.084       .  S
C2449      C2450   1.406       .  A
C2449      C2454   1.405       .  A
C2449      C2609   1.485       .  S
C2450      C2451   1.404       .  A
C2450      H2455   1.082       .  S
C2451      C2452   1.402       .  A
C2451      C2521   1.478       .  S
C2452      C2453   1.403       .  A
C2452      H2456   1.082       .  S
C2453      C2454   1.403       .  A
C2453      C2571   1.477       .  S
C2454      H2457   1.083       .  S
C2458      C2459   1.409       .  A
C2458      C2463   1.408       .  A
C2458      C2708   1.491       .  S
C2459      C2460   1.406       .  A
C2459      H2464   1.083       .  S
C2460      C2461   1.405       .  A
C2460      C2596   1.478       .  S
C2461      C2462   1.404       .  A
C2461      H2465   1.084       .  S
C2462      C2463   1.402       .  A
C2462      C2535   1.477       .  S
C2463      H2466   1.083       .  S
C2467      C2468   1.410       .  A
C2467      C2472   1.409       .  A
C2467      C2653   1.488       .  S
C2468      C2469   1.406       .  A
C2468      H2473   1.084       .  S
C2469      C2470   1.402       .  A
C2469      C2500   1.478       .  S
C2470      C2471   1.401       .  A
C2470      H2474   1.084       .  S
C2471      C2472   1.402       .  A
C2471      C2592   1.474       .  S
C2472      H2475   1.084       .  S
C2476      C2477   1.402       .  A
C2476      C2481   1.402       .  A
C2476      C2752   1.485       .  S
C2477      C2478   1.405       .  A
C2477      H2482   1.082       .  S
C2478      C2479   1.406       .  A
C2478      C2525   1.480       .  S
C2479      C2480   1.407       .  A
C2479      H2483   1.084       .  S
C2480      C2481   1.405       .  A
C2480      C2606   1.479       .  S
C2481      H2484   1.082       .  S
C2485      C2522   1.465       .  S
C2485      N2503   1.350       .  A
N2486      N2503   1.325       .  A
N2486      N2508   1.321       .  A
N2486     Co2523   2.081       .  S
C2487      C2525   1.459       .  S
C2487      H2532   1.081       .  S
C2487      N2512   1.336       .  A
H2488      C2529   1.082       .  S
C2489      C2493   1.462       .  S
C2489      H2518   1.081       .  S
C2489      N2513   1.336       .  A
Co2490     N2508   2.097       .  S
Co2490     N2498   2.077       .  S
Co2490     N2530   2.075       .  S
Co2490     N2506   2.100       .  S
Co2490    Cl2534   2.437       .  S
N2491      C2529   1.343       .  A
N2491      N2498   1.319       .  A
N2491     Co2492   2.088       .  S
Co2492     N2495   2.075       .  S
Co2492     N2512   2.074       .  S
Co2492     N2499   2.093       .  S
Co2492    Cl2534   2.467       .  S
C2493      C2551   1.475       .  S
C2493      N2531   1.349       .  A
N2494      N2501   1.319       .  A
N2494      N2524   1.325       .  A
N2494     Co2527   2.085       .  S
N2495      N2513   1.320       .  A
N2495      N2531   1.324       .  A
N2496      C2525   1.354       .  A
N2496      N2506   1.328       .  A
H2497      C2522   1.081       .  S
N2498      N2519   1.323       .  A
N2499      N2517   1.320       .  A
N2499      N2504   1.328       .  A
C2500      C2528   1.458       .  S
C2500      N2504   1.353       .  A
N2501      C2516   1.343       .  A
N2501     Co2523   2.089       .  S
C2502      C2505   1.456       .  S
C2502      H2536   1.082       .  S
C2502      N2530   1.337       .  A
C2505      N2526   1.351       .  A
N2506      N2512   1.320       .  A
N2507      C2533   1.339       .  A
N2507      N2509   1.320       .  A
N2507     Co2523   2.078       .  S
N2508      C2522   1.341       .  A
N2509      N2537   1.324       .  A
N2509     Co2527   2.092       .  S
H2510      C2533   1.081       .  S
H2511      C2528   1.082       .  S
N2513     Co2527   2.085       .  S
N2514      N2526   1.327       .  A
N2514      N2530   1.319       .  A
N2514     Co2523   2.088       .  S
C2515      C2529   1.462       .  S
C2515      C2542   1.472       .  S
C2515      N2519   1.348       .  A
C2516      C2535   1.463       .  S
C2516      H2520   1.082       .  S
N2517      C2528   1.339       .  A
N2517     Co2527   2.081       .  S
C2521      C2533   1.460       .  S
C2521      N2537   1.352       .  A
Co2523    Cl2534   2.467       .  S
N2524      C2535   1.349       .  A
Co2527    Cl2534   2.434       .  S
C2538      C2539   1.408       .  A
C2538      C2543   1.408       .  A
C2538      C2675   1.487       .  S
C2539      C2540   1.403       .  A
C2539      H2544   1.083       .  S
C2540      C2541   1.402       .  A
C2540      C2556   1.474       .  S
C2541      C2542   1.401       .  A
C2541      H2545   1.084       .  S
C2542      C2543   1.402       .  A
C2543      H2546   1.083       .  S
C2547      C2548   1.409       .  A
C2547      C2552   1.408       .  A
C2547      C2763   1.486       .  S
C2548      C2549   1.403       .  A
C2548      H2553   1.083       .  S
C2549      C2550   1.399       .  A
C2549      C2576   1.476       .  S
C2550      C2551   1.398       .  A
C2550      H2554   1.080       .  S
C2551      C2552   1.403       .  A
C2552      H2555   1.083       .  S
C2556      C2593   1.456       .  S
C2556      N2574   1.353       .  A
N2557      N2579   1.319       .  A
N2557     Co2594   2.091       .  S
C2558      C2596   1.465       .  S
C2558      H2603   1.082       .  S
C2558      N2583   1.345       .  A
H2559      C2600   1.081       .  S
C2560      C2564   1.455       .  S
C2560      H2589   1.082       .  S
Co2561     N2579   2.074       .  S
Co2561     N2569   2.089       .  S
Co2561     N2601   2.083       .  S
Co2561     N2577   2.082       .  S
Co2561    Cl2605   2.430       .  S
N2562      N2569   1.320       .  A
N2562     Co2563   2.082       .  S
Co2563     N2583   2.096       .  S
Co2563    Cl2605   2.472       .  S
C2564      N2602   1.352       .  A
N2565      N2572   1.320       .  A
N2565     Co2598   2.093       .  S
N2566      N2584   1.320       .  A
N2567      C2596   1.348       .  A
N2567      N2577   1.324       .  A
H2568      C2593   1.082       .  S
N2570      N2588   1.321       .  A
N2570      N2575   1.324       .  A
C2571      C2599   1.460       .  S
C2571      N2575   1.352       .  A
C2573      C2576   1.460       .  S
C2573      H2607   1.081       .  S
C2573      N2601   1.336       .  A
C2576      N2597   1.351       .  A
N2577      N2583   1.320       .  A
N2578      C2604   1.345       .  A
N2578      N2580   1.319       .  A
N2580      N2608   1.322       .  A
N2580     Co2598   2.078       .  S
H2581      C2604   1.082       .  S
H2582      C2599   1.081       .  S
N2584     Co2598   2.072       .  S
N2585      N2597   1.326       .  A
N2585      N2601   1.320       .  A
N2585     Co2594   2.081       .  S
C2586      C2600   1.462       .  S
C2586      N2590   1.351       .  A
C2587      C2606   1.461       .  S
C2587      H2591   1.081       .  S
N2588      C2599   1.338       .  A
N2588     Co2598   2.084       .  S
C2592      C2604   1.464       .  S
C2592      N2608   1.347       .  A
Co2594    Cl2605   2.470       .  S
N2595      C2606   1.352       .  A
C2609      C2610   1.407       .  A
C2609      C2614   1.407       .  A
C2610      C2611   1.397       .  A
C2610      H2623   1.083       .  S
C2611      C2612   1.399       .  A
C2611      H2624   1.084       .  S
C2612      C2613   1.400       .  A
C2612      C2615   1.438       .  S
C2613      C2614   1.398       .  A
C2613      H2625   1.084       .  S
C2614      H2626   1.083       .  S
C2615      C2616   1.205       .  T
C2616      C2617   1.438       .  S
C2617      C2622   1.401       .  A
C2618      C2619   1.397       .  A
C2618      H2627   1.083       .  S
C2619      C2620   1.406       .  A
C2619      H2628   1.083       .  S
C2621      C2622   1.399       .  A
C2621      H2629   1.083   1_556  S
C2622      H2630   1.083       .  S
C2631      C2632   1.409       .  A
C2631      C2636   1.409       .  A
C2632      C2633   1.402       .  A
C2632      H2645   1.083       .  S
C2633      C2634   1.401       .  A
C2633      H2646   1.083       .  S
C2634      C2635   1.400       .  A
C2634      C2637   1.447       .  S
C2635      C2636   1.400       .  A
C2635      H2647   1.084       .  S
C2636      H2648   1.083       .  S
C2637      C2638   1.210       .  T
C2638      C2639   1.447       .  S
C2639      C2640   1.401       .  A
C2639      C2644   1.403       .  A
C2640      C2641   1.399       .  A
C2640      H2649   1.083       .  S
C2641      C2642   1.406       .  A
C2641      H2650   1.083       .  S
C2642      C2643   1.406       .  A
C2643      C2644   1.403       .  A
C2643      H2651   1.083   1_556  S
C2644      H2652   1.083       .  S
C2653      C2654   1.408       .  A
C2653      C2658   1.407       .  A
C2654      C2655   1.398       .  A
C2654      H2667   1.083       .  S
C2655      C2656   1.399       .  A
C2655      H2668   1.084       .  S
C2656      C2657   1.402       .  A
C2656      C2659   1.445       .  S
C2657      C2658   1.403       .  A
C2657      H2669   1.083       .  S
C2658      H2670   1.083       .  S
C2659      C2660   1.209       .  T
C2660      C2661   1.445       .  S
C2661      C2662   1.402       .  A
C2661      C2666   1.401       .  A
C2662      C2663   1.401       .  A
C2662      H2671   1.083       .  S
C2663      C2664   1.407       .  A
C2663      H2672   1.083       .  S
C2664      C2665   1.405       .  A
C2665      C2666   1.400       .  A
C2665      H2673   1.083       .  S
C2666      H2674   1.083       .  S
C2675      C2676   1.408       .  A
C2675      C2680   1.408       .  A
C2676      C2677   1.396       .  A
C2676      H2689   1.083       .  S
C2677      C2678   1.398       .  A
C2677      H2690   1.084       .  S
C2678      C2679   1.400       .  A
C2678      C2681   1.440       .  S
C2679      C2680   1.400       .  A
C2679      H2691   1.083       .  S
C2680      H2692   1.083       .  S
C2681      C2682   1.206       .  T
C2683      C2684   1.401       .  A
C2684      C2685   1.400       .  A
C2684      H2693   1.083       .  S
C2685      C2686   1.405       .  A
C2685      H2694   1.083       .  S
C2686      C2687   1.404       .  A
C2688      H2696   1.084       .  S
C2697      C2698   1.406       .  A
C2697      C2702   1.406       .  A
C2698      C2699   1.400       .  A
C2698      H2711   1.083       .  S
C2699      C2700   1.401       .  A
C2699      H2712   1.083       .  S
C2700      C2701   1.401       .  A
C2700      C2703   1.445       .  S
C2701      C2702   1.401       .  A
C2701      H2713   1.083       .  S
C2702      H2714   1.083   1_556  S
C2703      C2704   1.209       .  T
C2704      C2705   1.445       .  S
C2705      C2706   1.402       .  A
C2705      C2710   1.399       .  A
C2706      C2707   1.403       .  A
C2706      H2715   1.083       .  S
C2707      C2708   1.408       .  A
C2707      H2716   1.083       .  S
C2708      C2709   1.409       .  A
C2709      C2710   1.398       .  A
C2709      H2717   1.083       .  S
C2710      H2718   1.084       .  S
C2719      C2720   1.405       .  A
C2720      C2721   1.400       .  A
C2720      H2733   1.083       .  S
C2721      H2734   1.083       .  S
C2722      C2723   1.400   1_455  A
C2722      C2725   1.441   1_455  S
C2723      C2724   1.398   1_655  A
C2723      H2735   1.083       .  S
C2724      H2736   1.083       .  S
C2725      C2726   1.207       .  T
C2726      C2727   1.442       .  S
C2727      C2728   1.399       .  A
C2727      C2732   1.401       .  A
C2728      C2729   1.397       .  A
C2728      H2737   1.084       .  S
C2729      C2730   1.407       .  A
C2729      H2738   1.083       .  S
C2730      C2731   1.406       .  A
C2731      C2732   1.401       .  A
C2731      H2739   1.083       .  S
C2732      H2740   1.083       .  S
C2741      C2746   1.405       .  A
C2742      C2743   1.399       .  A
C2742      H2755   1.083       .  S
C2743      H2756   1.083       .  S
C2744      C2745   1.399   1_545  A
C2745      C2746   1.396       .  A
C2745      H2757   1.084       .  S
C2746      H2758   1.083       .  S
C2747      C2748   1.205       .  T
C2748      C2749   1.438       .  S
C2749      C2750   1.400       .  A
C2749      C2754   1.399       .  A
C2750      C2751   1.398       .  A
C2751      C2752   1.407       .  A
C2751      H2760   1.083       .  S
C2752      C2753   1.407       .  A
C2753      C2754   1.397       .  A
C2753      H2761   1.083       .  S
C2754      H2762   1.083       .  S
C2763      C2764   1.407       .  A
C2763      C2768   1.408       .  A
C2764      C2765   1.398       .  A
C2764      H2777   1.083       .  S
C2765      C2766   1.399       .  A
C2765      H2778   1.084       .  S
C2766      C2767   1.400       .  A
C2766      C2769   1.440       .  S
C2767      C2768   1.399       .  A
C2767      H2779   1.083       .  S
C2768      H2780   1.083       .  S
C2769      C2770   1.206       .  T
C2770      C2771   1.440       .  S
C2771      C2772   1.401       .  A
C2771      C2776   1.399       .  A
C2772      C2773   1.400       .  A
C2772      H2781   1.083       .  S
C2773      C2774   1.406       .  A
C2773      H2782   1.083       .  S
C2774      C2775   1.407       .  A
C2775      C2776   1.397       .  A
C2775      H2783   1.083       .  S
C2776      H2784   1.084       .  S
C2785      C2786   1.410       .  A
C2785      C2790   1.408       .  A
C2786      C2787   1.404       .  A
C2786      H2799   1.083       .  S
C2787      C2788   1.402       .  A
C2787      H2800   1.083       .  S
C2788      C2789   1.400       .  A
C2788      C2791   1.449       .  S
C2789      C2790   1.400       .  A
C2790      H2802   1.083       .  S
C2791      C2792   1.211       .  T
C2792      C2793   1.449       .  S
C2793      C2798   1.402       .  A
C2794      C2795   1.401       .  A
C2794      H2803   1.083       .  S
C2795      C2796   1.405       .  A
C2795      H2804   1.083       .  S
C2797      C2798   1.402       .  A
C2797      H2805   1.083       .  S
C2798      H2806   1.083       .  S
C2807      C2808   1.405       .  A
C2807      C2812   1.406       .  A
C2808      C2809   1.401       .  A
C2808      H2821   1.083       .  S
C2809      C2810   1.402       .  A
C2809      H2822   1.083       .  S
C2810      C2811   1.399       .  A
C2810      C2813   1.440       .  S
C2811      C2812   1.396       .  A
C2811      H2823   1.084       .  S
C2812      H2824   1.083       .  S
C2813      C2814   1.206       .  T
C2814      C2815   1.441       .  S
C2815      C2816   1.399       .  A
C2815      C2820   1.400       .  A
C2816      C2817   1.398       .  A
C2816      H2825   1.084       .  S
C2817      C2818   1.408       .  A
C2817      H2826   1.083       .  S
C2818      C2819   1.408       .  A
C2819      C2820   1.400       .  A
C2819      H2827   1.083       .  S
C2820      H2828   1.083       .  S
C2829      C2830   1.405       .  A
C2830      C2831   1.399       .  A
C2830      H2843   1.083       .  S
C2831      C2832   1.401   1_565  A
C2831      H2844   1.083       .  S
C2833      C2834   1.400       .  A
C2833      H2845   1.083       .  S
C2834      H2846   1.083       .  S
C2835      C2836   1.208       .  T
C2836      C2837   1.443       .  S
C2837      C2838   1.402       .  A
C2837      C2842   1.399       .  A
C2838      C2839   1.402       .  A
C2838      H2847   1.083       .  S
C2839      C2840   1.407       .  A
C2839      H2848   1.083       .  S
C2840      C2841   1.408       .  A
C2841      C2842   1.397       .  A
C2841      H2849   1.083       .  S
C2851      C2852   1.406       .  A
C2851      C2856   1.404       .  A
C2852      C2853   1.398       .  A
C2852      H2865   1.083       .  S
C2853      C2854   1.400       .  A
C2853      H2866   1.083       .  S
C2854      C2855   1.401       .  A
C2854      C2857   1.441       .  S
C2855      C2856   1.400       .  A
C2855      H2867   1.083       .  S
C2856      H2868   1.083       .  S
C2857      C2858   1.207       .  T
C2858      C2859   1.441       .  S
C2859      C2860   1.401       .  A
C2859      C2864   1.399       .  A
C2860      C2861   1.400       .  A
C2860      H2869   1.083       .  S
C2861      C2862   1.408       .  A
C2861      H2870   1.083       .  S
C2862      C2863   1.406       .  A
C2863      C2864   1.398       .  A
C2863      H2871   1.083       .  S
C2864      H2872   1.084       .  S
C2873      C2878   1.406       .  A
C2874      C2875   1.402       .  A
C2874      H2887   1.083       .  S
C2875      C2876   1.403   1_455  A
C2875      H2888   1.083       .  S
C2876      C2877   1.400       .  A
C2876      C2879   1.443       .  S
C2877      H2889   1.083       .  S
C2878      H2890   1.083       .  S
C2879      C2880   1.208       .  T
C2880      C2881   1.443       .  S
C2881      C2882   1.401       .  A
C2881      C2886   1.399       .  A
C2882      C2883   1.401       .  A
C2882      H2891   1.083       .  S
C2883      C2884   1.408       .  A
C2883      H2892   1.083       .  S
C2884      C2885   1.409       .  A
C2885      C2886   1.399       .  A
C2885      H2893   1.083       .  S
C2886      H2894   1.083       .  S
C2895      C2896   1.405       .  A
C2895      C2900   1.405       .  A
C2896      C2897   1.398       .  A
C2896      H2909   1.083       .  S
C2897      C2898   1.400       .  A
C2897      H2910   1.083       .  S
C2898      C2899   1.400       .  A
C2898      C2901   1.440       .  S
C2899      C2900   1.398       .  A
C2899      H2911   1.083       .  S
C2900      H2912   1.083       .  S
C2901      C2902   1.206       .  T
C2902      C2903   1.440       .  S
C2903      C2904   1.400       .  A
C2903      C2908   1.399       .  A
C2904      C2905   1.400       .  A
C2904      H2913   1.083       .  S
C2905      C2906   1.408       .  A
C2905      H2914   1.083       .  S
C2906      C2907   1.410       .  A
C2907      C2908   1.398       .  A
C2907      H2915   1.083       .  S
C2908      H2916   1.084       .  S
C2917      C2918   1.405       .  A
C2917      C2922   1.405       .  A
C2918      C2919   1.400       .  A
C2918      H2931   1.083       .  S
C2919      C2920   1.401       .  A
C2919      H2932   1.083       .  S
C2920      C2921   1.400       .  A
C2920      C2923   1.442       .  S
C2921      C2922   1.398       .  A
C2921      H2933   1.083       .  S
C2922      H2934   1.083       .  S
C2923      C2924   1.207       .  T
C2924      C2925   1.442       .  S
C2925      C2926   1.399       .  A
C2925      C2930   1.401       .  A
C2926      C2927   1.397       .  A
C2926      H2935   1.084       .  S
C2927      C2928   1.409       .  A
C2927      H2936   1.083       .  S
C2928      C2929   1.408       .  A
C2929      C2930   1.401       .  A
C2929      H2937   1.083       .  S
C2930      H2938   1.083       .  S
C2939      C2940   1.408       .  A
C2939      C2944   1.409       .  A
C2940      C2941   1.401       .  A
C2940      H2953   1.083       .  S
C2941      C2942   1.401       .  A
C2941      H2954   1.083       .  S
C2942      C2943   1.399       .  A
C2942      C2945   1.444       .  S
C2943      C2944   1.399       .  A
C2943      H2955   1.083       .  S
C2944      H2956   1.083       .  S
C2945      C2946   1.208       .  T
C2946      C2947   1.444   1_655  S
C2947      C2952   1.400   1_455  A
C2948      C2949   1.402       .  A
C2948      H2957   1.083       .  S
C2949      C2950   1.405       .  A
C2949      H2958   1.083       .  S
C2951      C2952   1.398   1_455  A
C2951      H2959   1.083       .  S
C2952      H2960   1.083       .  S
