geometry optimzed in LAMMPS
_audit_creation_date              2020-12-01 
_audit_creation_method            'lammps2cif' 
_symmetry_space_group_name_H-M    'P1' 
_symmetry_Int_Tables_number       1 
_symmetry_cell_setting            triclinic 
loop_ 
_symmetry_equiv_pos_as_xyz 
  x,y,z 
_cell_length_a                    38.2201816 
_cell_length_b                    38.27582398745276 
_cell_length_c                    38.37654244801586 
_cell_angle_alpha                 90.09989034521007 
_cell_angle_beta                  90.05774348843036 
_cell_angle_gamma                 89.86024245400246 
loop_ 
_atom_site_label 
_atom_site_type_symbol 
_atom_site_fract_x 
_atom_site_fract_y 
_atom_site_fract_z 
_atom_site_charge 
C1          C  0.34767677  0.22168955  0.52529280     0.79000
N2          N  0.33588496  0.23603256  0.49524824    -0.79300
C3          C  0.33895252  0.21882779  0.46459079     0.81500
N4          N  0.35330134  0.18620398  0.46417093    -0.79200
C5          C  0.36533433  0.17184937  0.49410882     0.81600
N6          N  0.36247125  0.18972705  0.52417643    -0.80900
C7          C  0.15188143  0.41048589  0.46099876     0.79000
N8          N  0.16807988  0.39931670  0.49074651    -0.79300
C9          C  0.15284391  0.40403121  0.52257685     0.81500
N10         N  0.12076457  0.41990317  0.52446634    -0.79200
C11         C  0.10416925  0.43182979  0.49531226     0.81600
N12         N  0.11977764  0.42650552  0.46367177    -0.80900
C13         C  0.13620479  0.52396138  0.35873542     0.79000
N14         N  0.10602307  0.52065373  0.37689946    -0.79300
C15         C  0.09070692  0.54922967  0.39099773     0.81500
N16         N  0.10537775  0.58103410  0.38656852    -0.79200
C17         C  0.13547698  0.58446761  0.36839778     0.81600
N18         N  0.15068184  0.55575033  0.35454902    -0.80900
C19         C  0.32360966  0.52569052  0.17320992     0.79000
N20         N  0.34191287  0.52574673  0.14268908    -0.79300
C21         C  0.35233279  0.55627073  0.12762669     0.81500
N22         N  0.34357756  0.58724168  0.14341346    -0.79200
C23         C  0.32551646  0.58782269  0.17434852     0.81600
N24         N  0.31531867  0.55680222  0.18870006    -0.80900
C25         C  0.48279481  0.21180978  0.34522556     0.79000
N26         N  0.48164842  0.18106948  0.36229032    -0.79300
C27         C  0.45136724  0.16718010  0.37374227     0.81500
N28         N  0.42072778  0.18465714  0.36754691    -0.79200
C29         C  0.42127254  0.21597051  0.35000003     0.81600
N30         N  0.45242712  0.22908048  0.33909755    -0.80900
C31         C  0.45501083  0.41580727  0.17170522     0.79000
N32         N  0.48566786  0.40837512  0.18787046    -0.79300
C33         C  0.51656590  0.41967151  0.17456604     0.81500
N34         N  0.51693361  0.43771183  0.14390412    -0.79200
C35         C  0.48630455  0.44576756  0.12780806     0.81600
N36         N  0.45582686  0.43467223  0.14181867    -0.80900
C37         C  0.11318386  0.37868220  0.96127256     0.79000
N38         N  0.12239459  0.36213915  0.99148546    -0.79300
C39         C  0.11397996  0.37586515  0.02333532     0.81500
N40         N  0.09674269  0.40727800  0.02476853    -0.79200
C41         C  0.08761941  0.42470855  0.99492048     0.81600
N42         N  0.09625795  0.41025296  0.96342087    -0.80900
C43         C  0.30937624  0.19254004  0.96652119     0.79000
N44         N  0.29098979  0.19300231  0.99659798    -0.79300
C45         C  0.30437502  0.17899829  0.02609709     0.81500
N46         N  0.33653450  0.16444300  0.02499636    -0.79200
C47         C  0.35552783  0.16405026  0.99543003     0.81600
N48         N  0.34222259  0.17862229  0.96606043    -0.80900
O49         O  0.11229494  0.34127239  0.73652538    -0.89400
C50         C  0.25916177  0.25014723  0.64047901     1.10700
O51         O  0.19153039  0.33601242  0.74000221    -1.37200
O52         O  0.18539119  0.22003194  0.67522438    -0.90800
O53         O  0.13567952  0.38036317  0.77305181    -0.91500
O54         O  0.16968025  0.29901050  0.81394405    -0.80300
O55         O  0.14955305  0.28407267  0.70121112    -1.02400
C56         C  0.24052262  0.22529399  0.79378942     1.20700
O57         O  0.24773725  0.30950057  0.77462115    -1.37300
Mn58       Mn  0.24494318  0.32924219  0.72136204     1.82100
O59         O  0.20943195  0.23727605  0.79376245    -0.79400
O60         O  0.21867259  0.19780140  0.71772758    -0.88800
C61         C  0.31025288  0.28664173  0.70648443     1.11800
C62         C  0.19454404  0.19513968  0.69514634     1.06500
O63         O  0.26843215  0.37944950  0.73362654    -0.80300
O64         O  0.22269060  0.27716948  0.71600992    -1.34000
O65         O  0.23925556  0.37971372  0.78006723    -0.99500
C66         C  0.26978756  0.28533687  0.85776814     1.05300
Mn67       Mn  0.25793614  0.23532888  0.71999476     1.48600
O68         O  0.24446054  0.30666573  0.85485767    -0.88700
Mn69       Mn  0.18911761  0.37948073  0.77299312     1.49600
O70         O  0.15544619  0.38972210  0.69228094    -0.92600
C71         C  0.13406264  0.26493532  0.72140240     1.18500
C72         C  0.17379394  0.41519630  0.70342115     1.10500
Mn73       Mn  0.19702602  0.28561175  0.76575156     1.81000
O74         O  0.29506198  0.26962816  0.72821226    -0.97800
Mn75       Mn  0.15230614  0.33551494  0.70099036     1.49300
C76         C  0.11036352  0.36269099  0.76150610     1.07000
Mn77       Mn  0.29239178  0.27876012  0.77889965     1.49900
C78         C  0.32379526  0.34594984  0.80335068     1.09900
O79         O  0.19298820  0.34848733  0.81329378    -1.03600
O80         O  0.26526384  0.23184250  0.66712715    -0.93200
C81         C  0.17208593  0.32922880  0.82722494     1.21200
O82         O  0.26080151  0.23756077  0.77228729    -1.04000
O83         O  0.23288169  0.27015723  0.63827294    -0.91400
O84         O  0.32577714  0.32200118  0.78035605    -0.91000
O85         O  0.19091937  0.41382495  0.73160627    -0.91000
Mn86       Mn  0.19027984  0.27414220  0.67172603     1.47900
O87         O  0.29678695  0.31627736  0.70028897    -0.79500
C88         C  0.26228304  0.39319654  0.76304002     1.14300
O89         O  0.14744099  0.26157135  0.75155627    -0.78200
O90         O  0.23646726  0.35069442  0.66937819    -0.77800
Mn91       Mn  0.24368444  0.34513165  0.81620093     1.51100
O92         O  0.29044651  0.27842464  0.83300053    -0.90200
O93         O  0.18812193  0.32479876  0.66726645    -0.97700
O94         O  0.29667365  0.35110006  0.82123966    -0.92700
C95         C  0.20829396  0.34471122  0.65304680     1.12100
C96         C  0.10814404  0.02786286  0.33559891     0.79000
N97         N  0.11126600  0.05880852  0.31908379    -0.79300
C98         C  0.09761043  0.08827721  0.33310255     0.81500
N99         N  0.08157880  0.08654760  0.36471572    -0.79200
C100        C  0.07852620  0.05558925  0.38143872     0.81600
N101        N  0.09185685  0.02640735  0.36684581    -0.80900
C102        C  0.29581590  0.02531002  0.14538015     0.79000
N103        N  0.32745126  0.02483931  0.12868971    -0.79300
C104        C  0.34315673  0.05489921  0.11778090     0.81500
N105        N  0.32729478  0.08613034  0.12546671    -0.79200
C106        C  0.29556352  0.08729258  0.14228582     0.81600
N107        N  0.28019891  0.05667927  0.15213118    -0.80900
O108        O  0.25497595  0.81367412  0.14506786    -0.89400
C109        C  0.17086091  0.70167064  0.28479836     1.10700
O110        O  0.25507857  0.80740420  0.22311467    -1.37200
O111        O  0.14273838  0.73327010  0.21747818    -0.90800
O112        O  0.29445106  0.84991271  0.16791772    -0.91500
O113        O  0.21671979  0.88151508  0.20717483    -0.80300
O114        O  0.20197227  0.76888277  0.18099522    -1.02400
C115        C  0.13936701  0.85323663  0.26977919     1.20700
O116        O  0.22660786  0.83615528  0.28144593    -1.37300
Mn117      Mn  0.24801367  0.78378292  0.27447837     1.82100
O118        O  0.15425054  0.85702712  0.24069180    -0.79400
O119        O  0.11762178  0.77944497  0.24234312    -0.88800
C120        C  0.20298995  0.76383644  0.33593956     1.11800
C121        C  0.11717440  0.75393418  0.22115310     1.06500
O122        O  0.29907748  0.79304549  0.29780691    -0.80300
O123        O  0.19621489  0.77952739  0.25184245    -1.34000
O124        O  0.30011453  0.84175640  0.27259954    -0.99500
C125        C  0.20056273  0.91630446  0.30874463     1.05300
Mn126      Mn  0.15245711  0.78088039  0.28421167     1.48600
O127        O  0.22750938  0.91510226  0.28972393    -0.88700
Mn128      Mn  0.29762977  0.84222887  0.22187905     1.49600
O129        O  0.30679806  0.76787519  0.17844851    -0.92600
C130        C  0.17978436  0.78847726  0.16817162     1.18500
C131        C  0.33366903  0.77701040  0.19496645     1.10500
Mn132      Mn  0.20381809  0.83115078  0.22962014     1.81000
O133        O  0.18529055  0.78621482  0.32220649    -0.97800
Mn134      Mn  0.25402820  0.77330406  0.18069083     1.49300
C135        C  0.27471269  0.84008766  0.14297728     1.07000
Mn136      Mn  0.19037856  0.83675622  0.32290841     1.49900
C137        C  0.25814637  0.85276328  0.36260426     1.09900
O138        O  0.26571063  0.88076048  0.23255019    -1.03600
O139        O  0.15002242  0.72719992  0.28806695    -0.93200
C140        C  0.24588587  0.89615977  0.21289781     1.21200
O141        O  0.15274976  0.83174266  0.28894914    -1.04000
O142        O  0.19545807  0.70138169  0.26259165    -0.91400
O143        O  0.22941692  0.83640883  0.36055457    -0.91000
O144        O  0.33433496  0.80227842  0.21627873    -0.91000
Mn145      Mn  0.19616390  0.73528505  0.22025953     1.47900
O146        O  0.23358452  0.75943896  0.32368391    -0.79500
C147        C  0.31483688  0.82149458  0.29216792     1.14300
O148        O  0.17815641  0.81927001  0.18029740    -0.78200
O149        O  0.27173596  0.73275148  0.26202245    -0.77800
Mn150      Mn  0.26435821  0.87607340  0.28360744     1.51100
O151        O  0.18745045  0.89033730  0.32425269    -0.90200
O152        O  0.24689807  0.73528107  0.21383379    -0.97700
O153        O  0.27064331  0.87043926  0.33743036    -0.92700
C154        C  0.26785543  0.71992503  0.23179605     1.12100
C155        C  0.95808295  0.19651122  0.33499380     0.79000
N156        N  0.98862382  0.20200809  0.31798539    -0.79300
C157        C  0.01953493  0.19129004  0.33195965     0.81500
N158        N  0.01983732  0.17620815  0.36445687    -0.79200
C159        C  0.98893239  0.17009288  0.38136284     0.81600
N160        N  0.95867768  0.18026681  0.36626914    -0.80900
C161        C  0.92239334  0.37884058  0.12860327     0.79000
N162        N  0.92191636  0.40790824  0.10789506    -0.79300
C163        C  0.95259756  0.42382269  0.09958993     0.81500
N164        N  0.98283148  0.41116242  0.11242709    -0.79200
C165        C  0.98338424  0.38381848  0.13433458     0.81600
N166        N  0.95316897  0.36736074  0.14215259    -0.80900
O167        O  0.80590310  0.26355401  0.32010127    -0.89400
C168        C  0.61176722  0.25202394  0.27756812     1.10700
O169        O  0.75182338  0.30407825  0.27772470    -1.37200
O170        O  0.68796951  0.19482580  0.24593018    -0.90800
O171        O  0.83202819  0.29845933  0.28165827    -0.91500
O172        O  0.79465002  0.29042529  0.20346450    -0.80300
O173        O  0.74328158  0.23214423  0.28737753    -1.02400
C174        C  0.70543045  0.25885796  0.16389311     1.20700
O175        O  0.72306007  0.33222214  0.21803218    -1.37300
Mn176      Mn  0.70009518  0.32650432  0.26954281     1.82100
O177        O  0.73480057  0.25559487  0.17817374    -0.79400
O178        O  0.65141128  0.22008022  0.20844919    -0.88800
C179        C  0.63760784  0.34616386  0.22746478     1.11800
C180        C  0.66739818  0.19336656  0.21993726     1.06500
O181        O  0.71065837  0.37591710  0.29261338    -0.80300
O182        O  0.69322394  0.27464242  0.24817181    -1.34000
O183        O  0.76111370  0.37698128  0.26872479    -0.99500
C184        C  0.75404714  0.35506891  0.13675892     1.05300
Mn185      Mn  0.65150546  0.27402575  0.21254861     1.48600
O186        O  0.76366643  0.37274242  0.16293447    -0.88700
Mn187      Mn  0.79479165  0.33803714  0.27787266     1.49600
O188        O  0.75591620  0.30996398  0.35762309    -0.92600
C189        C  0.76434819  0.21813791  0.26842785     1.18500
C190        C  0.77709036  0.33561090  0.35835330     1.10500
Mn191      Mn  0.74515929  0.28062018  0.22666080     1.81000
O192        O  0.65138902  0.32479768  0.20870312    -0.97800
Mn193      Mn  0.75184928  0.26992755  0.32025579     1.49300
C194        C  0.83262608  0.27349009  0.30331407     1.07000
Mn195      Mn  0.68880035  0.33180196  0.17524522     1.49900
C196        C  0.69406594  0.41289566  0.19057562     1.09900
O197        O  0.79507599  0.34031929  0.22663740    -1.03600
O198        O  0.61287366  0.27170305  0.25098302    -0.93200
C199        C  0.80831188  0.32008927  0.20613087     1.21200
O200        O  0.68591492  0.28076133  0.17609559    -1.04000
O201        O  0.63849083  0.23585392  0.28885277    -0.91400
O202        O  0.68335065  0.38640161  0.17366365    -0.91000
O203        O  0.79418935  0.34486788  0.33167418    -0.91000
Mn204      Mn  0.69231053  0.23368525  0.28409188     1.47900
O205        O  0.65085863  0.35019652  0.25723766    -0.79500
C206        C  0.73981466  0.39047809  0.28880955     1.14300
O207        O  0.76838879  0.23138144  0.23877124    -0.78200
O208        O  0.67559630  0.31682260  0.31873476    -0.77800
Mn209      Mn  0.75799266  0.37409189  0.21655719     1.51100
O210        O  0.72870270  0.33369574  0.13780182    -0.90200
O211        O  0.70090452  0.26817431  0.32014743    -0.97700
O212        O  0.71889978  0.41161740  0.21238105    -0.92700
C213        C  0.67965373  0.28770017  0.33323995     1.12100
C214        C  0.64810349  0.18465716  0.98722561     0.79000
N215        N  0.66280581  0.19243679  0.01835721    -0.79300
C216        C  0.64790576  0.18126077  0.04833547     0.81500
N217        N  0.61702172  0.16339664  0.04704945    -0.79200
C218        C  0.60224070  0.15555865  0.01568039     0.81600
N219        N  0.61788242  0.16645300  0.98607694    -0.80900
C220        C  0.82738219  0.39101772  0.01043654     0.79000
N221        N  0.84500737  0.42144664  0.00832056    -0.79300
C222        C  0.85550145  0.43481541  0.97746360     0.81500
N223        N  0.84859203  0.41645891  0.94746934    -0.79200
C224        C  0.83263002  0.38427392  0.94956336     0.81600
N225        N  0.82164294  0.37240546  0.98102360    -0.80900
C226        C  0.93791284  0.20181889  0.67282152     0.79000
N227        N  0.93869972  0.18395125  0.64179296    -0.79300
C228        C  0.96978831  0.17540606  0.62622351     0.81500
N229        N  0.00021120  0.18573401  0.64176333    -0.79200
C230        C  0.00027910  0.20374837  0.67261389     0.81600
N231        N  0.96887154  0.21166978  0.68791139    -0.80900
C232        C  0.00589502  0.39341219  0.85829307     0.79000
N233        N  0.00674207  0.42471426  0.87475338    -0.79300
C234        C  0.97676272  0.43896962  0.88688053     0.81500
N235        N  0.94604485  0.42244232  0.88167219    -0.79200
C236        C  0.94497509  0.39145332  0.86478112     0.81600
N237        N  0.97509944  0.37718737  0.85326802    -0.80900
O238        O  0.79772668  0.36625637  0.79552281    -0.89400
C239        C  0.60696851  0.32112524  0.80718424     1.10700
O240        O  0.74575661  0.32657581  0.75353880    -1.37200
O241        O  0.68318860  0.28907229  0.85992809    -0.90800
O242        O  0.82593136  0.32871104  0.76131716    -0.91500
O243        O  0.79095188  0.25079875  0.76025107    -0.80300
O244        O  0.73708221  0.33186776  0.82492752    -1.02400
C245        C  0.70158391  0.20631088  0.78793849     1.20700
O246        O  0.71728604  0.26955689  0.72134198    -1.37300
Mn247      Mn  0.69391873  0.32067577  0.73053399     1.82100
O248        O  0.73036563  0.22151423  0.79367022    -0.79400
O249        O  0.65044960  0.24787667  0.83453876    -0.88800
C250        C  0.62922347  0.27964873  0.71106731     1.11800
C251        C  0.66616915  0.26070279  0.86081945     1.06500
O252        O  0.70585107  0.34819780  0.68199643    -0.80300
O253        O  0.68775252  0.29496235  0.78098117    -1.34000
O254        O  0.75603416  0.32411948  0.68165764    -0.99500
C255        C  0.74889573  0.19266855  0.69043372     1.05300
Mn256      Mn  0.64716925  0.25730255  0.78081728     1.48600
O257        O  0.75800481  0.22013690  0.67515844    -0.88700
Mn258      Mn  0.78992380  0.32884540  0.72089615     1.49600
O259        O  0.74818913  0.40603614  0.75180827    -0.92600
C260        C  0.75836391  0.31276922  0.83862527     1.18500
C261        C  0.77176247  0.40809300  0.72871662     1.10500
Mn262      Mn  0.74025955  0.27358036  0.77320467     1.81000
O263        O  0.64430039  0.25879564  0.72984955    -0.97800
Mn264      Mn  0.74482079  0.36724354  0.78991006     1.49300
C265        C  0.82502933  0.34982452  0.78675947     1.07000
Mn266      Mn  0.68256476  0.22704667  0.71823360     1.49900
C267        C  0.68688486  0.25061820  0.63957131     1.09900
O268        O  0.79040046  0.27815727  0.71297518    -1.03600
O269        O  0.60797220  0.29418533  0.78801766    -0.93200
C270        C  0.80509124  0.25645462  0.73100947     1.21200
O271        O  0.68135480  0.22161897  0.76880456    -1.04000
O272        O  0.63306960  0.33395853  0.82283479    -0.91400
O273        O  0.67599840  0.23230828  0.66485546    -0.91000
O274        O  0.79108730  0.38269468  0.72006341    -0.91000
Mn275      Mn  0.68639073  0.32928462  0.82387323     1.47900
O276        O  0.64368380  0.30914812  0.70720040    -0.79500
C277        C  0.73641090  0.34642628  0.66924464     1.14300
O278        O  0.76414353  0.28386284  0.82357611    -0.78200
O279        O  0.66946718  0.37067991  0.74412203    -0.77800
Mn280      Mn  0.75215626  0.27230573  0.67913618     1.51100
O281        O  0.72304893  0.19089232  0.71113239    -0.90200
O282        O  0.69428145  0.36877578  0.79270500    -0.97700
O283        O  0.71240230  0.27167776  0.64186047    -0.92700
C284        C  0.67478352  0.38476002  0.77351661     1.12100
C285        C  0.12363581  0.71347257  0.99099009     0.79000
N286        N  0.10765090  0.68199043  0.99110986    -0.79300
C287        C  0.09510417  0.66742450  0.02059864     0.81500
N288        N  0.09949517  0.68466036  0.05149120    -0.79200
C289        C  0.11602833  0.71650463  0.05196514     0.81600
N290        N  0.12791637  0.73056082  0.02166548    -0.80900
C291        C  0.29824802  0.91426051  0.01547186     0.79000
N292        N  0.28154212  0.90706579  0.98515054    -0.79300
C293        C  0.29529193  0.91780222  0.95442919     0.81500
N294        N  0.32611904  0.93553245  0.95398241    -0.79200
C295        C  0.34285187  0.94274320  0.98420897     0.81600
N296        N  0.32903429  0.93158005  0.01455161    -0.80900
C297        C  0.10534546  0.01077783  0.67377130     0.79000
N298        N  0.08466852  0.01119474  0.64478089    -0.79300
C299        C  0.07841542  0.04170401  0.62789084     0.81500
N300        N  0.09365344  0.07134101  0.63951166    -0.79200
C301        C  0.11538988  0.07098366  0.66732776     0.81600
N302        N  0.12099840  0.04066658  0.68463850    -0.80900
C303        C  0.30783871  0.04462965  0.84990626     0.79000
N304        N  0.29018711  0.07518808  0.84730496    -0.79300
C305        C  0.30416744  0.10530358  0.85972030     0.81500
N306        N  0.33705995  0.10481096  0.87437267    -0.79200
C307        C  0.35494970  0.07397162  0.87715137     0.81600
N308        N  0.34011272  0.04456717  0.86447734    -0.80900
O309        O  0.32744788  0.84200920  0.74237045    -0.89400
C310        C  0.19236105  0.75365289  0.86239555     1.10700
O311        O  0.24798890  0.83595710  0.74841232    -1.37200
O312        O  0.26454876  0.72467008  0.82202014    -0.90800
O313        O  0.30063083  0.88002037  0.70724609    -0.91500
O314        O  0.26495877  0.79362545  0.67878497    -0.80300
O315        O  0.29343020  0.78713997  0.78716413    -1.02400
C316        C  0.20424763  0.71809667  0.71093845     1.20700
O317        O  0.19005365  0.80388231  0.72094390    -1.37300
Mn318      Mn  0.19702920  0.82804975  0.77158443     1.82100
O319        O  0.23272626  0.73350956  0.70578658    -0.79400
O320        O  0.22717023  0.69712467  0.78693886    -0.88800
C321        C  0.13555212  0.78713007  0.79338015     1.11800
C322        C  0.25367097  0.69741959  0.80695363     1.06500
O323        O  0.17172172  0.87606691  0.75962679    -0.80300
O324        O  0.22091391  0.77702320  0.78005341    -1.34000
O325        O  0.19531230  0.87581292  0.71015497    -0.99500
C326        C  0.16540198  0.76944891  0.64173380     1.05300
Mn327      Mn  0.18699486  0.73418921  0.78221911     1.48600
O328        O  0.18515821  0.79625820  0.64124939    -0.88700
Mn329      Mn  0.24626423  0.87747188  0.71254357     1.49600
O330        O  0.28793021  0.89257293  0.78620725    -0.92600
C331        C  0.30651382  0.76570760  0.76763020     1.18500
C332        C  0.26918081  0.91835255  0.77672696     1.10500
Mn333      Mn  0.24218978  0.78350860  0.72802558     1.81000
O334        O  0.14930135  0.76698802  0.77309774    -0.97800
Mn335      Mn  0.29084981  0.83850484  0.78212140     1.49300
C336        C  0.32774517  0.86386121  0.71757259     1.07000
Mn337      Mn  0.14932952  0.76728696  0.72236465     1.49900
C338        C  0.10780983  0.83034285  0.69638632     1.09900
O339        O  0.23927011  0.84241341  0.67619389    -1.03600
O340        O  0.18145829  0.73669236  0.83606846    -0.93200
C341        C  0.26113257  0.82270725  0.66422024     1.21200
O342        O  0.18410156  0.73134043  0.73151449    -1.04000
O343        O  0.21862160  0.77380649  0.86065654    -0.91400
O344        O  0.10998810  0.80507622  0.71766750    -0.91000
O345        O  0.24804061  0.91632999  0.75121653    -0.91000
Mn346      Mn  0.25673067  0.77782664  0.82158880     1.47900
O347        O  0.14859062  0.81701451  0.79578631    -0.79500
C348        C  0.17436730  0.88926210  0.72985688     1.14300
O349        O  0.29207740  0.76158538  0.73855963    -0.78200
O350        O  0.20710220  0.85374284  0.81989196    -0.77800
Mn351      Mn  0.18812858  0.83731346  0.67773322     1.51100
O352        O  0.14990895  0.75944363  0.66905238    -0.90200
O353        O  0.25738840  0.82995740  0.82121833    -0.97700
O354        O  0.13392348  0.84089378  0.67888079    -0.92700
C355        C  0.23652384  0.85095699  0.83411478     1.12100
C356        C  0.94506085  0.72004281  0.12635905     0.79000
N357        N  0.97653326  0.73274759  0.13597927    -0.79300
C358        C  0.00615827  0.71428410  0.13035228     0.81500
N359        N  0.00424997  0.68272976  0.11446901    -0.79200
C360        C  0.97283191  0.66976192  0.10485902     0.81600
N361        N  0.94355666  0.68825631  0.11116672    -0.80900
C362        C  0.94498929  0.91097002  0.32197696     0.79000
N363        N  0.97676403  0.90335489  0.30736602    -0.79300
C364        C  0.00725482  0.91289208  0.32349610     0.81500
N365        N  0.00557930  0.93031973  0.35469383    -0.79200
C366        C  0.97415956  0.93842935  0.36969160     0.81600
N367        N  0.94413048  0.92823197  0.35327250    -0.80900
C368        C  0.83862573  0.03810950  0.32527985     0.79000
N369        N  0.85768610  0.03954721  0.35487861    -0.79300
C370        C  0.86789529  0.07019862  0.36883098     0.81500
N371        N  0.85925592  0.10051464  0.35247777    -0.79200
C372        C  0.84135252  0.09947373  0.32156895     0.81600
N373        N  0.83027419  0.06824782  0.30870367    -0.80900
C374        C  0.63458608  0.00350779  0.14382022     0.79000
N375        N  0.64680058  0.03463316  0.15558274    -0.79300
C376        C  0.62861009  0.06452602  0.15038700     0.81500
N377        N  0.59776556  0.06291694  0.13339413    -0.79200
C378        C  0.58463185  0.03251941  0.12121894     0.81600
N379        N  0.60279943  0.00211452  0.12699786    -0.80900
O380        O  0.63943895  0.77095829  0.18244427    -0.89400
C381        C  0.83081110  0.74997823  0.21489588     1.10700
O382        O  0.69666497  0.80480723  0.22454481    -1.37200
O383        O  0.75467277  0.69437051  0.25481188    -0.90800
O384        O  0.61679979  0.80058616  0.22731129    -0.91500
O385        O  0.65571809  0.79466744  0.30168131    -0.80300
O386        O  0.70031523  0.73260783  0.21294896    -1.02400
C387        C  0.74798343  0.75933554  0.33800624     1.20700
O388        O  0.72953967  0.83174789  0.28091273    -1.37300
Mn389      Mn  0.74985567  0.82528147  0.22847801     1.82100
O390        O  0.71768742  0.75663024  0.32479992    -0.79400
O391        O  0.79744458  0.71717918  0.28671042    -0.88800
C392        C  0.81574332  0.84384230  0.26954596     1.11800
C393        C  0.77738907  0.69192875  0.27870556     1.06500
O394        O  0.73763433  0.87542767  0.20459428    -0.80300
O395        O  0.75503170  0.77353355  0.25084433    -1.34000
O396        O  0.69037652  0.87483296  0.23247327    -0.99500
C397        C  0.69998595  0.85622961  0.35825813     1.05300
Mn398      Mn  0.79882268  0.77171730  0.28366174     1.48600
O399        O  0.69918516  0.87976448  0.33538536    -0.88700
Mn400      Mn  0.65462030  0.83995532  0.22796097     1.49600
O401        O  0.69065430  0.81531445  0.14649547    -0.92600
C402        C  0.67865613  0.72024147  0.23337808     1.18500
C403        C  0.66768831  0.83939226  0.14823118     1.10500
Mn404      Mn  0.70452978  0.78137672  0.27546711     1.81000
O405        O  0.80195893  0.82280027  0.28885441    -0.97800
Mn406      Mn  0.69323399  0.77295214  0.18056267     1.49300
C407        C  0.61464309  0.77798818  0.20312003     1.07000
Mn408      Mn  0.76477626  0.83057276  0.32262799     1.49900
C409        C  0.76311744  0.91051760  0.30306893     1.09900
O410        O  0.65668362  0.84432659  0.27853288    -1.03600
O411        O  0.83195708  0.77043377  0.24083521    -0.93200
C412        C  0.64206214  0.82466891  0.29862985     1.21200
O413        O  0.76779255  0.77934521  0.32342357    -1.04000
O414        O  0.80581637  0.72899732  0.20992341    -0.91400
O415        O  0.77045830  0.88501665  0.32293705    -0.91000
O416        O  0.65019540  0.84528675  0.17531143    -0.91000
Mn417      Mn  0.75265165  0.73163450  0.21562696     1.47900
O418        O  0.80128923  0.84786208  0.23989495    -0.79500
C419        C  0.70804680  0.88911271  0.21060201     1.14300
O420        O  0.67751991  0.73300858  0.26379526    -0.78200
O421        O  0.77180746  0.81281924  0.17672589    -0.77800
Mn422      Mn  0.69726942  0.87569915  0.28215256     1.51100
O423        O  0.72315143  0.83247255  0.35791203    -0.90200
O424        O  0.74426808  0.76583522  0.17806678    -0.97700
O425        O  0.73965550  0.90899070  0.27981993    -0.92700
C426        C  0.76510604  0.78368941  0.16232503     1.12100
C427        C  0.63443065  0.91901347  0.02776548     0.79000
N428        N  0.60328231  0.93618617  0.02634167    -0.79300
C429        C  0.58625556  0.93985242  0.99556506     0.81500
N430        N  0.59985329  0.92560572  0.96627144    -0.79200
C431        C  0.63066442  0.90821845  0.96782231     0.81600
N432        N  0.64750962  0.90494549  0.99838298    -0.80900
C433        C  0.82316469  0.72822789  0.96631323     0.79000
N434        N  0.81394155  0.74366776  0.99719228    -0.79300
C435        C  0.82237934  0.72845246  0.02836257     0.81500
N436        N  0.83988895  0.69697158  0.02795588    -0.79200
C437        C  0.85010749  0.68158965  0.99726009     0.81600
N438        N  0.84128169  0.69746735  0.96677243    -0.80900
C439        C  0.84365991  0.08136905  0.66690893     0.79000
N440        N  0.86119726  0.08063931  0.63627469    -0.79300
C441        C  0.86514559  0.05061997  0.61823915     0.81500
N442        N  0.85188600  0.02045999  0.63138806    -0.79200
C443        C  0.83572111  0.02055862  0.66310530     0.81600
N444        N  0.83114964  0.05118083  0.68012151    -0.80900
C445        C  0.64540515  0.07646479  0.84933890     0.79000
N446        N  0.61493203  0.07742638  0.86794563    -0.79300
C447        C  0.59910182  0.04768712  0.87932437     0.81500
N448        N  0.61445631  0.01622668  0.87197900    -0.79200
C449        C  0.64566850  0.01440900  0.85439830     0.81600
N450        N  0.66075443  0.04473835  0.84300721    -0.80900
C451        C  0.97951488  0.89878185  0.65496176     0.79000
N452        N  0.94857319  0.89518239  0.67169621    -0.79300
C453        C  0.91860040  0.90801510  0.65750668     0.81500
N454        N  0.91976166  0.92486383  0.62605090    -0.79200
C455        C  0.95091568  0.92839193  0.60913962     0.81600
N456        N  0.98012312  0.91489442  0.62364692    -0.80900
C457        C  0.95642373  0.72589169  0.85457194     0.79000
N458        N  0.95573801  0.69669438  0.87461630    -0.79300
C459        C  0.98523608  0.68416202  0.88973014     0.81500
N460        N  0.01599100  0.70096938  0.88440433    -0.79200
C461        C  0.01682649  0.73064636  0.86484397     0.81600
N462        N  0.98713075  0.74260183  0.84964248    -0.80900
N463        N  0.95298856  0.98303171  0.44933744    -0.07300
N464        N  0.94258644  0.96869263  0.41954247    -0.59400
N465        N  0.97850914  0.97443851  0.53433570    -0.07000
N466        N  0.98627484  0.95600777  0.56234517    -0.61500
N467        N  0.94441804  0.97698012  0.53080597    -0.06600
N468        N  0.92821121  0.96057816  0.55652696    -0.59400
N469        N  0.98713519  0.98014561  0.45271187    -0.06200
N470        N  0.00058340  0.96399399  0.42507154    -0.61900
C471        C  0.97251467  0.95682654  0.40443768     0.94900
C472        C  0.95470885  0.94743253  0.57590819     0.94700
N473        N  0.04090544  0.06381840  0.54735813    -0.07500
N474        N  0.05437723  0.07340558  0.57744880    -0.60000
N475        N  0.04615258  0.03492094  0.46425942    -0.05600
N476        N  0.05762400  0.02432299  0.43362291    -0.61200
N477        N  0.04813048  0.06921582  0.46667811    -0.07500
N478        N  0.06079362  0.08246021  0.43757923    -0.60300
N479        N  0.03867609  0.02948948  0.54539662    -0.05200
N480        N  0.05074541  0.01515784  0.57447905    -0.61300
Mn481      Mn  0.01393703  0.00364115  0.49944364     1.18400
C482        C  0.06026439  0.04301399  0.59418010     0.97000
C483        C  0.06647078  0.05419005  0.41737083     0.97600
N484        N  0.89467681  0.03975266  0.53181943    -0.07500
N485        N  0.88220893  0.02553191  0.56061809    -0.63800
N486        N  0.90316828  0.08123131  0.45359698    -0.06300
N487        N  0.89195953  0.09620157  0.42445474    -0.64500
N488        N  0.90132866  0.04698605  0.45087234    -0.07000
N489        N  0.88896128  0.03803507  0.42015294    -0.64100
N490        N  0.89736249  0.07393275  0.53544290    -0.05900
N491        N  0.88685229  0.08335027  0.56684616    -0.64800
Mn492      Mn  0.92200238  0.01104281  0.49026800     1.10700
C493        C  0.87751328  0.05297640  0.58215455     0.98200
C494        C  0.88328356  0.06875694  0.40389612     0.98300
N495        N  0.99779309  0.13168828  0.46539467    -0.07000
N496        N  0.01334028  0.14443424  0.43721430    -0.62400
N497        N  0.95573711  0.13058787  0.54498493    -0.06400
N498        N  0.94257641  0.14766550  0.57221470    -0.59100
N499        N  0.98993976  0.12819782  0.54774689    -0.07700
N500        N  0.00069446  0.14370058  0.57683508    -0.62000
N501        N  0.96360413  0.13436510  0.46265970    -0.06700
N502        N  0.95524940  0.14898997  0.43263353    -0.59200
Mn503      Mn  0.02051980  0.09903151  0.50715895     1.20200
Mn504      Mn  0.92859660  0.10618477  0.49923502     1.10100
Cl505      Cl  0.97129081  0.05494419  0.49913400    -0.87100
C506        C  0.98640054  0.15530628  0.41701030     0.95200
C507        C  0.97091002  0.15584337  0.59206543     0.95000
N508        N  0.94292315  0.50755378  0.06240386    -0.07300
N509        N  0.92751376  0.47860975  0.07339976    -0.59400
N510        N  0.98355153  0.58471491  0.07388183    -0.07000
N511        N  0.99744555  0.61292412  0.08774711    -0.61500
N512        N  0.94941199  0.58845796  0.07038210    -0.06600
N513        N  0.93958906  0.61944802  0.08184624    -0.59400
N514        N  0.97718487  0.50467267  0.06490234    -0.06200
N515        N  0.98570659  0.47390820  0.07749247    -0.61900
C516        C  0.95469235  0.45788075  0.08249799     0.94900
C517        C  0.96983902  0.63415455  0.09249218     0.94700
N518        N  0.05113630  0.59106580  0.99246736    -0.07500
N519        N  0.06894589  0.61964902  0.98535920    -0.60000
N520        N  0.04319271  0.50483827  0.01615130    -0.05600
N521        N  0.05696341  0.47463319  0.02638649    -0.61200
N522        N  0.04711242  0.50888185  0.98236780    -0.07500
N523        N  0.06345989  0.48121468  0.96897098    -0.60300
N524        N  0.04799565  0.58717384  0.02631770    -0.05200
N525        N  0.06344563  0.61345923  0.04299028    -0.61300
Mn526      Mn  0.01368099  0.54487760  0.04663143     1.18400
C527        C  0.07663306  0.63345673  0.01696234     0.97000
C528        C  0.06966238  0.45990599  0.99672252     0.97600
N529        N  0.89423841  0.59944761  0.01087624    -0.07500
N530        N  0.87710031  0.62670501  0.02414186    -0.63800
N531        N  0.89487067  0.51921470  0.96768764    -0.06300
N532        N  0.88256675  0.49056751  0.95215938    -0.64500
N533        N  0.89113588  0.51690659  0.00163273    -0.07000
N534        N  0.87634499  0.48694522  0.00984496    -0.64100
N535        N  0.89731923  0.60263583  0.97691806    -0.05900
N536        N  0.88229186  0.63218119  0.96647942    -0.64800
Mn537      Mn  0.91826306  0.55326663  0.03750847     1.10700
C538        C  0.86961831  0.64715009  0.99615624     0.98200
C539        C  0.87088674  0.47063298  0.97898281     0.98300
N540        N  0.99390473  0.52110306  0.92247806    -0.07000
N541        N  0.00588131  0.49115613  0.91043191    -0.62400
N542        N  0.96298733  0.60339613  0.92740934    -0.06400
N543        N  0.95334157  0.63310764  0.91295368    -0.59100
N544        N  0.99734050  0.60197894  0.93073503    -0.07700
N545        N  0.01156994  0.63102843  0.91845317    -0.62000
N546        N  0.95955987  0.52262262  0.91958458    -0.06700
N547        N  0.94762074  0.49348650  0.90566299    -0.59200
Mn548      Mn  0.02349719  0.55611371  0.95587841     1.20200
Mn549      Mn  0.92778606  0.56225799  0.94651683     1.10100
Cl550      Cl  0.97084339  0.55436389  0.99658682    -0.87100
C551        C  0.97679137  0.47437580  0.90016982     0.95200
C552        C  0.98369855  0.65016956  0.90759996     0.95000
N553        N  0.44019140  0.13043257  0.98313933    -0.07300
N554        N  0.41222521  0.14549686  0.96950461    -0.59400
N555        N  0.51780398  0.11872579  0.02405616    -0.07000
N556        N  0.54661112  0.13016534  0.03950655    -0.61500
N557        N  0.52081861  0.12109084  0.98990853    -0.06600
N558        N  0.55158076  0.13413988  0.98158808    -0.59400
N559        N  0.43671498  0.12722916  0.01716937    -0.06200
N560        N  0.40629267  0.13997621  0.02715119    -0.61900
C561        C  0.39147362  0.15130621  0.99727095     0.94900
C562        C  0.56740238  0.13961124  0.01264051     0.94700
N563        N  0.50434043  0.02433459  0.07444210    -0.07500
N564        N  0.53118288  0.00832133  0.08973709    -0.60000
N565        N  0.42493796  0.06778807  0.07277833    -0.05600
N566        N  0.39784949  0.08123816  0.09001473    -0.61200
N567        N  0.42178407  0.03365645  0.07028590    -0.07500
N568        N  0.39252902  0.02331828  0.08589327    -0.60300
N569        N  0.50715600  0.05838405  0.07749028    -0.05200
N570        N  0.53577077  0.06628205  0.09500275    -0.61300
Mn571      Mn  0.47159122  0.09421005  0.04886072     1.18400
C572        C  0.55056176  0.03498693  0.10266506     0.97000
C573        C  0.37760379  0.05323970  0.09824653     0.97600
N574        N  0.52018305  0.07024178  0.92485962    -0.07500
N575        N  0.55011164  0.08004872  0.91031380    -0.63800
N576        N  0.43382881  0.04635494  0.91766231    -0.06300
N577        N  0.40442570  0.03891739  0.90116010    -0.64500
N578        N  0.43756157  0.08039527  0.92039605    -0.07000
N579        N  0.41041802  0.09676121  0.90602724    -0.64100
N580        N  0.51615942  0.03627038  0.92179367    -0.05900
N581        N  0.54346328  0.02231033  0.90537848    -0.64800
Mn582      Mn  0.48019177  0.10181542  0.95376099     1.10700
C583        C  0.56459639  0.04989524  0.89819538     0.98200
C584        C  0.39000108  0.07046575  0.89386308     0.98300
N585        N  0.42245815  0.98245511  0.00577548    -0.07000
N586        N  0.39323333  0.96727781  0.01543411    -0.66200
N587        N  0.50495071  0.97743356  0.97631275    -0.06400
N588        N  0.53489848  0.96446160  0.96518011    -0.59100
N589        N  0.50295513  0.97528327  0.01055148    -0.07700
N590        N  0.53169935  0.96101882  0.02325988    -0.62000
N591        N  0.42409468  0.98483041  0.97154631    -0.06700
N592        N  0.39564630  0.97111559  0.95730206    -0.59200
Mn593      Mn  0.46257893  0.00272603  0.04096563     1.20200
Mn594      Mn  0.46947245  0.01012567  0.94567083     1.10100
Cl595      Cl  0.47081036  0.05224067  0.99728012    -0.87100
C596        C  0.37676388  0.96039119  0.98517674     0.95200
C597        C  0.55115198  0.95444378  0.99468589     0.95000
O598        O  0.75949470  0.69170164  0.73623800    -0.89400
C599        C  0.66801680  0.81645911  0.86034584     1.10700
O600        O  0.75035774  0.76988652  0.74582031    -1.37200
O601        O  0.64100527  0.74633210  0.81669073    -0.90800
O602        O  0.79504427  0.72170984  0.70151134    -0.91500
O603        O  0.70856144  0.75285384  0.67400804    -0.80300
O604        O  0.70441205  0.72126084  0.78212168    -1.02400
C605        C  0.63214087  0.81503355  0.70942681     1.20700
O606        O  0.71667095  0.82772784  0.72086593    -1.37300
Mn607      Mn  0.74167136  0.82007503  0.77117182     1.82100
O608        O  0.64614606  0.78569857  0.70315663    -0.79400
O609        O  0.61275577  0.78459539  0.78314815    -0.88800
C610        C  0.69791617  0.88136684  0.79621954     1.11800
C611        C  0.61365596  0.75662721  0.80099029     1.06500
O612        O  0.78920848  0.84818999  0.75859076    -0.80300
O613        O  0.69175770  0.79385422  0.77836410    -1.34000
O614        O  0.78837239  0.82583663  0.70766326    -0.99500
C615        C  0.67964859  0.85472994  0.64475934     1.05300
Mn616      Mn  0.64781701  0.82644676  0.78200733     1.48600
O617        O  0.70457777  0.83283234  0.64236366    -0.88700
Mn618      Mn  0.79131011  0.77385159  0.70946282     1.49600
O619        O  0.80878662  0.73070014  0.78239257    -0.92600
C620        C  0.68347234  0.70666482  0.76328086     1.18500
C621        C  0.83374385  0.74962904  0.77173104     1.10500
Mn622      Mn  0.69728614  0.77440842  0.72531694     1.81000
O623        O  0.67853840  0.86684296  0.77585676    -0.97800
Mn624      Mn  0.75502043  0.72617022  0.77840556     1.49300
C625        C  0.77950311  0.69411104  0.70994502     1.07000
Mn626      Mn  0.68059001  0.86874312  0.72512119     1.49900
C627        C  0.74115894  0.91048528  0.69730453     1.09900
O628        O  0.75573116  0.78083330  0.67319686    -1.03600
O629        O  0.64944640  0.82779252  0.83554832    -0.93200
C630        C  0.73752635  0.75877981  0.65925992     1.21200
O631        O  0.64610580  0.83250385  0.73181408    -1.04000
O632        O  0.68965011  0.79155481  0.85776517    -0.91400
O633        O  0.71919845  0.90783301  0.72211456    -0.91000
O634        O  0.83052138  0.77182826  0.74736854    -0.91000
Mn635      Mn  0.69463569  0.75554485  0.81778472     1.47900
O636        O  0.72843292  0.86863357  0.79814066    -0.79500
C637        C  0.80098689  0.84758281  0.72779877     1.14300
O638        O  0.67638187  0.72236180  0.73513331    -0.78200
O639        O  0.76728865  0.80737390  0.81971549    -0.77800
Mn640      Mn  0.74736993  0.83163052  0.67585064     1.51100
O641        O  0.67297256  0.87136098  0.67235849    -0.90200
O642        O  0.74580772  0.75655483  0.81843176    -0.97700
O643        O  0.74840893  0.88552149  0.67690172    -0.92700
C644        C  0.76480969  0.77739204  0.83332297     1.12100
C645        C  0.33798583  0.87937147  0.54894723     0.79000
N646        N  0.32748823  0.86319920  0.51932120    -0.79300
C647        C  0.33406641  0.87746780  0.48787578     0.81500
N648        N  0.35074285  0.90860732  0.48611418    -0.79200
C649        C  0.36181122  0.92509732  0.51528479     0.81600
N650        N  0.35520640  0.91055649  0.54697274    -0.80900
C651        C  0.13504214  0.69564338  0.51305398     0.79000
N652        N  0.15202526  0.70117489  0.48259911    -0.79300
C653        C  0.13821008  0.69032926  0.45177242     0.81500
N654        N  0.10595014  0.67455428  0.45139900    -0.79200
C655        C  0.08887903  0.66839854  0.48206831     0.81600
N656        N  0.10372010  0.67906840  0.51225286    -0.80900
C657        C  0.81167545  0.40158732  0.49026970     0.79000
N658        N  0.79493500  0.39678620  0.52097436    -0.79300
C659        C  0.80953186  0.40724918  0.55160779     0.81500
N660        N  0.84190501  0.42288779  0.55130049    -0.79200
C661        C  0.85889556  0.42798623  0.52034396     0.81600
N662        N  0.84345328  0.41723954  0.49050452    -0.80900
C663        C  0.61221467  0.22491636  0.51230657     0.79000
N664        N  0.61984205  0.24099729  0.48186194    -0.79300
C665        C  0.60760873  0.22802040  0.45123534     0.81500
N666        N  0.58827124  0.19798875  0.45107778    -0.79200
C667        C  0.58036613  0.18194436  0.48170810     0.81600
N668        N  0.59252561  0.19555601  0.51187955    -0.80900
C669        C  0.60322583  0.88731511  0.46656737     0.79000
N670        N  0.60596300  0.87067815  0.49747065    -0.79300
C671        C  0.59504530  0.88590753  0.52729199     0.81500
N672        N  0.58130840  0.91867354  0.52593523    -0.79200
C673        C  0.57855476  0.93561823  0.49521212     0.81600
N674        N  0.58981833  0.92002001  0.46577857    -0.80900
C675        C  0.79859839  0.69656744  0.53175632     0.79000
N676        N  0.78317575  0.70574099  0.50093670    -0.79300
C677        C  0.79793712  0.69693165  0.46972319     0.81500
N678        N  0.82873165  0.67854709  0.46969765    -0.79200
C679        C  0.84463670  0.66862492  0.50000237     0.81600
N680        N  0.82947219  0.67809200  0.53099660    -0.80900
C681        C  0.44036390  0.43161171  0.83313388     0.79000
N682        N  0.46921972  0.41526203  0.82099990    -0.79300
C683        C  0.49966939  0.41670294  0.83863492     0.81500
N684        N  0.50155189  0.43479857  0.86877039    -0.79200
C685        C  0.47280913  0.45065397  0.88167528     0.81600
N686        N  0.44215366  0.44884336  0.86409732    -0.80900
C687        C  0.50079343  0.22515188  0.64755959     0.79000
N688        N  0.46964330  0.24062837  0.65530727    -0.79300
C689        C  0.43879027  0.22586679  0.64543153     0.81500
N690        N  0.43948013  0.19463077  0.62776146    -0.79200
C691        C  0.47056575  0.17893819  0.61903796     0.81600
N692        N  0.50106723  0.19430915  0.62951512    -0.80900
C693        C  0.44582835  0.87753765  0.35033060     0.79000
N694        N  0.47738399  0.86261103  0.34283844    -0.79300
C695        C  0.50786248  0.87841019  0.35256084     0.81500
N696        N  0.50646327  0.90986566  0.36977718    -0.79200
C697        C  0.47505011  0.92486429  0.37829478     0.81600
N698        N  0.44509066  0.90843868  0.36826244    -0.80900
C699        C  0.44476304  0.68250119  0.16773869     0.79000
N700        N  0.47550986  0.69167989  0.18243697    -0.79300
C701        C  0.50614748  0.68468715  0.16627772     0.81500
N702        N  0.50590815  0.66951401  0.13417254    -0.79200
C703        C  0.47515372  0.65956390  0.11962954     0.81600
N704        N  0.44489427  0.66595866  0.13655579    -0.80900
C705        C  0.79876533  0.50527687  0.36329628     0.79000
N706        N  0.78692235  0.53637774  0.35115633    -0.79300
C707        C  0.80428644  0.56627018  0.35810441     0.81500
N708        N  0.83394167  0.56449141  0.37710940    -0.79200
C709        C  0.84642975  0.53379719  0.38936018     0.81600
N710        N  0.82923901  0.50365652  0.38178472    -0.80900
C711        C  0.61566438  0.60299856  0.16333043     0.79000
N712        N  0.59817871  0.60298489  0.13211042    -0.79300
C713        C  0.59429078  0.57256008  0.11396847     0.81500
N714        N  0.60805440  0.54276790  0.12700476    -0.79200
C715        C  0.62548499  0.54246542  0.15769957     0.81600
N716        N  0.62937990  0.57266144  0.17571577    -0.80900
C717        C  0.48424562  0.68281861  0.82292416     0.79000
N718        N  0.48341875  0.66518322  0.85341368    -0.79300
C719        C  0.45323927  0.65810283  0.87002360     0.81500
N720        N  0.42240545  0.66862315  0.85558900    -0.79200
C721        C  0.42250100  0.68592978  0.82438250     0.81600
N722        N  0.45351385  0.69328137  0.80859510    -0.80900
C723        C  0.45659155  0.89447687  0.64648683     0.79000
N724        N  0.48661186  0.87672626  0.65291591    -0.79300
C725        C  0.51781812  0.88883553  0.64109542     0.81500
N726        N  0.51905714  0.92009369  0.62353142    -0.79200
C727        C  0.48862221  0.93779466  0.61672249     0.81600
N728        N  0.45801208  0.92467510  0.62837879    -0.80900
C729        C  0.80545830  0.57750013  0.62341572     0.79000
N730        N  0.79304499  0.54856127  0.63923635    -0.79300
C731        C  0.81084059  0.51802515  0.63757512     0.81500
N732        N  0.84200014  0.51657446  0.62051610    -0.79200
C733        C  0.85457950  0.54553317  0.60463771     0.81600
N734        N  0.83611625  0.57556944  0.60595056    -0.80900
C735        C  0.62059893  0.58046232  0.82501923     0.79000
N736        N  0.60261333  0.58190886  0.85587684    -0.79300
C737        C  0.59222794  0.55204582  0.87250221     0.81500
N738        N  0.60077211  0.52036392  0.85798352    -0.79200
C739        C  0.61843541  0.51844746  0.82692241     0.81600
N740        N  0.62837436  0.54864170  0.81092512    -0.80900
C741        C  0.32997971  0.50831076  0.83581762     0.79000
N742        N  0.34627599  0.50747615  0.86773630    -0.79300
C743        C  0.35365044  0.53814884  0.88453872     0.81500
N744        N  0.34404374  0.56864729  0.86973004    -0.79200
C745        C  0.32701784  0.56981448  0.83886011     0.81600
N746        N  0.31991767  0.53947082  0.82209965    -0.80900
C747        C  0.14809754  0.60376690  0.63138111     0.79000
N748        N  0.16523154  0.57363836  0.63880744    -0.79300
C749        C  0.15158336  0.54241670  0.62959895     0.81500
N750        N  0.12016827  0.54153496  0.61351289    -0.79200
C751        C  0.10246133  0.57107454  0.60582613     0.81600
N752        N  0.11605718  0.60263240  0.61543665    -0.80900
N753        N  0.02029214  0.47321122  0.48443026    -0.07300
N754        N  0.04772477  0.45693933  0.47056071    -0.59400
N755        N  0.94158643  0.47076746  0.52746682    -0.07000
N756        N  0.91436757  0.45643363  0.54354922    -0.61500
N757        N  0.93795641  0.46816516  0.49349124    -0.06600
N758        N  0.90849852  0.45190123  0.48581419    -0.59400
N759        N  0.02434445  0.47646362  0.51833443    -0.06200
N760        N  0.05449524  0.46202731  0.52813056    -0.61900
C761        C  0.06902910  0.44985243  0.49803289     0.94900
C762        C  0.89397395  0.44453944  0.51715890     0.94700
N763        N  0.93737498  0.56808325  0.57281654    -0.07500
N764        N  0.90583162  0.57757425  0.58285821    -0.60000
N765        N  0.02253581  0.54249119  0.56971741    -0.05600
N766        N  0.05316529  0.53523800  0.58384107    -0.61200
N767        N  0.01836511  0.57662249  0.56746864    -0.07500
N768        N  0.04610238  0.59312401  0.58001749    -0.60300
N769        N  0.94136281  0.53401554  0.57630883    -0.05200
N770        N  0.91250013  0.51991500  0.58895673    -0.61300
Mn771      Mn  0.98317987  0.50507709  0.54936570     1.18400
C772        C  0.89071450  0.54739912  0.59273000     0.97000
C773        C  0.06754267  0.56694514  0.59014934     0.97600
N774        N  0.92773677  0.52169166  0.43203912    -0.07500
N775        N  0.89941119  0.50704061  0.41838984    -0.63800
N776        N  0.00607794  0.56180620  0.42346159    -0.06300
N777        N  0.03487513  0.57513870  0.41024130    -0.64500
N778        N  0.00882320  0.52752696  0.42561439    -0.07000
N779        N  0.03948252  0.51701418  0.41373666    -0.64100
N780        N  0.92562814  0.55599059  0.42963300    -0.05900
N781        N  0.89620939  0.56528158  0.41451472    -0.64800
Mn782      Mn  0.97343840  0.49647983  0.45778015     1.10700
C783        C  0.88007334  0.53476801  0.40769504     0.98200
C784        C  0.05529405  0.54700152  0.40443293     0.98300
N785        N  0.00880846  0.62891205  0.50670064    -0.07000
N786        N  0.03804992  0.64514269  0.51521215    -0.62400
N787        N  0.92356550  0.62096575  0.48011865    -0.06400
N788        N  0.89424454  0.63630043  0.46929666    -0.59100
N789        N  0.92631304  0.62371394  0.51415015    -0.07700
N790        N  0.89893432  0.64086650  0.52710934    -0.62000
N791        N  0.00653062  0.62566710  0.47269106    -0.06700
N792        N  0.03433983  0.63965358  0.45736345    -0.59200
Mn793      Mn  0.97261804  0.60029367  0.54143563     1.20200
Mn794      Mn  0.96513316  0.59185547  0.45022682     1.10100
Cl795      Cl  0.97361260  0.54834627  0.49970151    -0.87100
C796        C  0.05374720  0.65192382  0.48431357     0.95200
C797        C  0.87889181  0.64872227  0.49887900     0.95000
N798        N  0.49818815  0.48701259  0.04592886    -0.07300
N799        N  0.51273423  0.47364509  0.07436933    -0.59400
N800        N  0.45830425  0.47944754  0.96712528    -0.07000
N801        N  0.44520034  0.46791428  0.93744968    -0.61500
N802        N  0.49267406  0.48133914  0.96503766    -0.06600
N803        N  0.50349758  0.47087825  0.93419211    -0.59400
N804        N  0.46383359  0.48485509  0.04795143    -0.06200
N805        N  0.45441092  0.47016758  0.07746871    -0.61900
C806        C  0.48495453  0.46333155  0.09374094     0.94900
C807        C  0.47369278  0.46287747  0.91738507     0.94700
N808        N  0.39223088  0.56296010  0.96459098    -0.07500
N809        N  0.37652969  0.57143054  0.93516646    -0.60000
N810        N  0.39957600  0.53640679  0.04924028    -0.05600
N811        N  0.38426223  0.52560716  0.07833134    -0.61200
N812        N  0.39699337  0.57055899  0.04658216    -0.07500
N813        N  0.37998167  0.58363661  0.07387709    -0.60300
N814        N  0.39503990  0.52884654  0.96706209    -0.05200
N815        N  0.38125986  0.51338622  0.93925821    -0.61300
Mn816      Mn  0.42840385  0.50606410  0.00821252     1.18400
C817        C  0.36966520  0.54038455  0.91962072     0.97000
C818        C  0.37205677  0.55531000  0.09365450     0.97600
N819        N  0.54782622  0.53976760  0.95431370    -0.07500
N820        N  0.56495893  0.52625447  0.92729231    -0.63800
N821        N  0.54975382  0.58190184  0.03308721    -0.06300
N822        N  0.56457378  0.59736340  0.06036086    -0.64500
N823        N  0.55218442  0.54777495  0.03598061    -0.07000
N824        N  0.56882539  0.53927372  0.06484000    -0.64100
N825        N  0.54483760  0.57382842  0.95076007    -0.05900
N826        N  0.56013260  0.58407269  0.92138054    -0.64800
Mn827      Mn  0.52377291  0.51280342  0.00055009     1.10700
C828        C  0.57267886  0.55411257  0.90674677     0.98200
C829        C  0.57648825  0.57030266  0.07984554     0.98300
N830        N  0.45271841  0.62921358  0.03632251    -0.07000
N831        N  0.44296385  0.63935838  0.06766662    -0.62400
N832        N  0.47938810  0.62531601  0.95186703    -0.06400
N833        N  0.48746019  0.63785318  0.92094727    -0.59100
N834        N  0.44511902  0.62339672  0.95522321    -0.07700
N835        N  0.42933593  0.63470772  0.92656893    -0.62000
N836        N  0.48695828  0.63188024  0.03302042    -0.06700
N837        N  0.50094463  0.64388256  0.06217075    -0.59200
Mn838      Mn  0.42072481  0.59780869  0.00073525     1.20200
Mn839      Mn  0.51605096  0.60471109  0.99162802     1.10100
Cl840      Cl  0.47229733  0.55538526  0.00034232    -0.87100
C841        C  0.47321022  0.64830404  0.08338468     0.95200
C842        C  0.45615349  0.64357610  0.90543744     0.95000
N843        N  0.49040686  0.10158576  0.56952138    -0.07300
N844        N  0.50126178  0.13022497  0.58584929    -0.59400
N845        N  0.46415837  0.01665907  0.57532544    -0.07000
N846        N  0.45566937  0.98757861  0.59157457    -0.61500
N847        N  0.49834639  0.01912206  0.57260780    -0.06600
N848        N  0.51381929  0.99151732  0.58699497    -0.59400
N849        N  0.45622267  0.09875927  0.57205558    -0.06200
N850        N  0.44321313  0.12551016  0.59007769    -0.61900
C851        C  0.47158004  0.14514123  0.59866206     0.94900
C852        C  0.48671236  0.97209976  0.59887257     0.94700
N853        N  0.40025904  0.00448480  0.48857771    -0.07500
N854        N  0.38521742  0.97454123  0.48044247    -0.60000
N855        N  0.39693017  0.08876240  0.51597491    -0.05600
N856        N  0.38629457  0.11997179  0.52587450    -0.61200
N857        N  0.39372061  0.08539779  0.48190076    -0.07500
N858        N  0.38081803  0.11432082  0.46817189    -0.60300
N859        N  0.40268930  0.00772625  0.52269765    -0.05200
N860        N  0.38942792  0.97993017  0.53833598    -0.61300
Mn861      Mn  0.42886057  0.05303634  0.54749829     1.18400
C862        C  0.37866054  0.95948715  0.51164903     0.97000
C863        C  0.37638140  0.13547162  0.49589692     0.97600
N864        N  0.54840166  0.02090727  0.50967646    -0.07500
N865        N  0.56151529  0.99173658  0.52254032    -0.63800
N866        N  0.53887488  0.09983040  0.47048745    -0.06300
N867        N  0.55189995  0.12836489  0.45587953    -0.64500
N868        N  0.54142392  0.10185882  0.50470432    -0.07000
N869        N  0.55607930  0.13160322  0.51392911    -0.64100
N870        N  0.54612270  0.01877627  0.47546532    -0.05900
N871        N  0.55784057  0.98827888  0.46451333    -0.64800
Mn872      Mn  0.52092952  0.06121767  0.53988856     1.10700
C873        C  0.56728380  0.97186663  0.49408708     0.98200
C874        C  0.56241247  0.14794283  0.48339840     0.98300
N875        N  0.44334912  0.08633698  0.41923933    -0.07000
N876        N  0.42732709  0.11323306  0.40411081    -0.62400
N877        N  0.48677608  0.00769734  0.42109557    -0.06400
N878        N  0.50063556  0.98042323  0.40455266    -0.59100
N879        N  0.45269381  0.00387062  0.42402352    -0.07700
N880        N  0.44278125  0.97404728  0.40927833    -0.62000
N881        N  0.47747418  0.08971481  0.41689864    -0.06700
N882        N  0.48536762  0.11862017  0.40004424    -0.59200
Mn883      Mn  0.42120581  0.04442728  0.45260445     1.20200
Mn884      Mn  0.51340477  0.05423230  0.44492441     1.10100
Cl885      Cl  0.47107840  0.05324917  0.49622288    -0.87100
C886        C  0.45401508  0.13311456  0.39206148     0.95200
C887        C  0.47294297  0.95945474  0.39715895     0.95000
O888        O  0.14918707  0.39314983  0.27357345    -0.89400
C889        C  0.18510889  0.20335949  0.30075574     1.10700
O890        O  0.19064141  0.33625543  0.23907997    -1.37200
O891        O  0.22584921  0.28206428  0.35149205    -0.90800
O892        O  0.18878030  0.41545832  0.23730036    -0.91500
O893        O  0.26554474  0.37931055  0.24779190    -0.80300
O894        O  0.18109290  0.33440467  0.31281832    -1.02400
C895        C  0.30296720  0.28783503  0.28673465     1.20700
O896        O  0.24792846  0.30523779  0.21265415    -1.37300
Mn897      Mn  0.19608315  0.28314814  0.21976757     1.82100
O898        O  0.29138968  0.31880568  0.28828232    -0.79400
O899        O  0.25392688  0.23727361  0.32716217    -0.88800
C900        C  0.23855630  0.21813434  0.20232070     1.11800
C901        C  0.24747812  0.25680313  0.35290316     1.06500
O902        O  0.17161435  0.29253725  0.16892462    -0.80300
O903        O  0.21847898  0.27989631  0.27177750    -1.34000
O904        O  0.19848959  0.34029104  0.16559444    -0.99500
C905        C  0.32768190  0.33654055  0.19078625     1.05300
Mn906      Mn  0.25084259  0.23616419  0.27363465     1.48600
O907        O  0.30385617  0.34036521  0.16808097    -0.88700
Mn908      Mn  0.19083664  0.37592319  0.20061854     1.49600
O909        O  0.11224307  0.33799732  0.23417161    -0.92600
C910        C  0.20078837  0.35539268  0.32590357     1.18500
C911        C  0.11080841  0.35727452  0.20748065     1.10500
Mn912      Mn  0.24183110  0.33057333  0.26267546     1.81000
O913        O  0.25692185  0.23350281  0.22295428    -0.97800
Mn914      Mn  0.14858852  0.33905774  0.27388632     1.49300
C915        C  0.16811445  0.41787728  0.26278511     1.07000
Mn916      Mn  0.29063108  0.27139230  0.21587271     1.49900
C917        C  0.27243283  0.26676337  0.13891076     1.09900
O918        O  0.24210283  0.37786236  0.19751883    -1.03600
O919        O  0.20841203  0.20161607  0.27705049    -0.93200
C920        C  0.26136349  0.39303005  0.21800849     1.21200
O921        O  0.28855162  0.26877843  0.26616073    -1.04000
O922        O  0.17985771  0.23042344  0.31878703    -0.91400
O923        O  0.29515098  0.26629642  0.16278427    -0.91000
O924        O  0.13659813  0.37467391  0.19591251    -0.91000
Mn925      Mn  0.18503548  0.28356447  0.31494462     1.47900
O926        O  0.20841841  0.23143990  0.19774173    -0.79500
C927        C  0.17764051  0.32045943  0.15219728     1.14300
O928        O  0.23057170  0.35764187  0.31164606    -0.78200
O929        O  0.14642298  0.25975028  0.23448021    -0.77800
Mn930      Mn  0.24937205  0.33632905  0.16793137     1.51100
O931        O  0.32571894  0.31331948  0.21445891    -0.90200
O932        O  0.14771965  0.28859868  0.28127065    -0.97700
O933        O  0.25022841  0.29127406  0.13675322    -0.92700
C934        C  0.13389412  0.26550812  0.26458336     1.12100
C935        C  0.67594143  0.66216160  0.81060258    -0.10300
C936        C  0.66649732  0.67344447  0.77672453     0.05900
C937        C  0.64102517  0.65338859  0.75884124    -0.04100
C938        C  0.62612164  0.62341410  0.77475214    -0.08500
C939        C  0.63541653  0.61300192  0.80883961     0.05000
C940        C  0.66083884  0.63283570  0.82646617    -0.03600
Br941      Br  0.67735424  0.62007549  0.87199391    -0.03300
H942        H  0.69535765  0.67641958  0.82544712     0.08900
H943        H  0.60698194  0.60826379  0.76045974     0.06900
Br944      Br  0.62574082  0.66523337  0.71278723    -0.03700
C945        C  0.82229539  0.63463863  0.64552503    -0.10300
C946        C  0.79503357  0.61148863  0.63760009     0.05900
C947        C  0.76158029  0.61728394  0.65191531    -0.04100
C948        C  0.75685387  0.64390647  0.67639912    -0.08500
C949        C  0.78517295  0.66475341  0.68655372     0.05000
C950        C  0.81797535  0.66050149  0.67022515    -0.03600
Br951      Br  0.85927426  0.68681743  0.68225046    -0.03300
H952        H  0.84830849  0.63081843  0.63502008     0.08900
H953        H  0.73110263  0.64848400  0.68729211     0.06900
Br954      Br  0.72179495  0.58989467  0.63863477    -0.03700
C955        C  0.59276014  0.86601550  0.70040508    -0.10300
C956        C  0.60238002  0.83185424  0.68983721     0.05900
C957        C  0.58528995  0.81773378  0.66031446    -0.04100
C958        C  0.55883303  0.83723057  0.64324757    -0.08500
C959        C  0.54984389  0.87129049  0.65425315     0.05000
C960        C  0.56734715  0.88550049  0.68302323    -0.03600
Br961      Br  0.55596744  0.93090468  0.70126515    -0.03300
H962        H  0.60525538  0.87828324  0.72257883     0.08900
H963        H  0.54491853  0.82559822  0.62156023     0.06900
Br964      Br  0.59665768  0.77244940  0.64218281    -0.03700
C965        C  0.55436639  0.73889764  0.77967883    -0.10300
C966        C  0.58179826  0.73478851  0.80386750     0.05900
C967        C  0.57813023  0.70959799  0.83051226    -0.04100
C968        C  0.54754419  0.69036323  0.83297826    -0.08500
C969        C  0.51862875  0.69680404  0.81117824     0.05000
C970        C  0.52292984  0.72029616  0.78305513    -0.03600
Br971      Br  0.48772122  0.72844935  0.74820792    -0.03300
H972        H  0.55707594  0.75715701  0.75833297     0.08900
H973        H  0.54578530  0.67191658  0.85424262     0.06900
Br974      Br  0.61110062  0.70218928  0.86782395    -0.03700
C975        C  0.78777336  0.74321416  0.61982612    -0.10300
C976        C  0.75162243  0.74011384  0.62710234     0.05900
C977        C  0.73141997  0.72021749  0.60330460    -0.04100
C978        C  0.74702049  0.70584400  0.57285083    -0.08500
C979        C  0.78312305  0.70956643  0.56568906     0.05000
C980        C  0.80340022  0.72819332  0.59016677    -0.03600
Br981      Br  0.85237745  0.73668325  0.58325267    -0.03300
H982        H  0.80443660  0.75790203  0.63736051     0.08900
H983        H  0.73074170  0.69165832  0.55456344     0.06900
Br984      Br  0.68240591  0.71254402  0.61030228    -0.03700
C985        C  0.61229338  0.89734067  0.58747415    -0.10300
C986        C  0.60895904  0.87282422  0.56059114     0.05900
C987        C  0.62678191  0.84043617  0.56339548    -0.04100
C988        C  0.65036611  0.83516194  0.59066563    -0.08500
C989        C  0.65608659  0.86137377  0.61548663     0.05000
C990        C  0.63634054  0.89266875  0.61390525    -0.03600
Br991      Br  0.64256154  0.93245687  0.64422483    -0.03300
H992        H  0.59854757  0.92209748  0.58649950     0.08900
H993        H  0.66404766  0.81040561  0.59260889     0.06900
Br994      Br  0.61996716  0.80203621  0.53178385    -0.03700
C995        C  0.90662429  0.70553783  0.81989384    -0.10300
C996        C  0.92608876  0.73396296  0.83221499     0.05900
C997        C  0.91719529  0.76806839  0.82104312    -0.04100
C998        C  0.88775955  0.77304532  0.79971647    -0.08500
C999        C  0.86753771  0.74440627  0.78901975     0.05000
C1000       C  0.87800554  0.71036728  0.79827209    -0.03600
Br1001     Br  0.85496069  0.66897475  0.78143243    -0.03300
H1002       H  0.91399670  0.67904288  0.82664658     0.08900
H1003       H  0.87991077  0.79933084  0.79260673     0.06900
Br1004     Br  0.94273806  0.80877224  0.83536031    -0.03700
C1005       C  0.88376727  0.90134449  0.71223134    -0.10300
C1006       C  0.88519290  0.90037714  0.67541421     0.05900
C1007       C  0.85665981  0.88653435  0.65702161    -0.04100
C1008       C  0.82893804  0.87203536  0.67531945    -0.08500
C1009       C  0.82832177  0.87047233  0.71219359     0.05000
C1010       C  0.85546891  0.88681957  0.73068208    -0.03600
Br1011     Br  0.85663748  0.88758376  0.78053230    -0.03300
H1012       H  0.90552645  0.91208142  0.72675665     0.08900
H1013       H  0.80845402  0.85999918  0.66000881     0.06900
Br1014     Br  0.85551739  0.88186789  0.60708627    -0.03700
C1015       C  0.70846988  0.93864921  0.82907596    -0.10300
C1016       C  0.68500388  0.91384949  0.81515883     0.05900
C1017       C  0.64857325  0.92181952  0.81773893    -0.04100
C1018       C  0.63699798  0.95375997  0.83170006    -0.08500
C1019       C  0.66033028  0.97932194  0.84351846     0.05000
C1020       C  0.69650588  0.97089952  0.84312778    -0.03600
Br1021     Br  0.73046900  0.00165080  0.86329405    -0.03300
H1022       H  0.73628697  0.93333761  0.82840662     0.08900
H1023       H  0.60916679  0.95911937  0.83222363     0.06900
Br1024     Br  0.61171837  0.89115565  0.80275540    -0.03700
C1025       C  0.79160708  0.97709060  0.64742219    -0.10300
C1026       C  0.81306661  0.99132081  0.67328204     0.05900
C1027       C  0.80766114  0.98167536  0.70842542    -0.04100
C1028       C  0.78168719  0.95725179  0.71680625    -0.08500
C1029       C  0.76070904  0.94269026  0.69057312     0.05000
C1030       C  0.76547055  0.95342973  0.65575375    -0.03600
Br1031     Br  0.73702245  0.93641384  0.61809315    -0.03300
H1032       H  0.79435144  0.98526960  0.62054386     0.08900
H1033       H  0.77916342  0.94826262  0.74344863     0.06900
Br1034     Br  0.83643371  0.99913291  0.74549001    -0.03700
C1035       C  0.81949672  0.77412958  0.91865435    -0.10300
C1036       C  0.80917885  0.74158217  0.93234290     0.05900
C1037       C  0.78600081  0.72101160  0.91251097    -0.04100
C1038       C  0.77233558  0.73352521  0.88102898    -0.08500
C1039       C  0.78185340  0.76632331  0.86716704     0.05000
C1040       C  0.80684341  0.78613998  0.88602483    -0.03600
Br1041     Br  0.82674043  0.82813733  0.86757594    -0.03300
H1042       H  0.83828748  0.78978335  0.93285959     0.08900
H1043       H  0.75390968  0.71704128  0.86727084     0.06900
Br1044     Br  0.77125745  0.67549119  0.92750005    -0.03700
C1045       C  0.67524517  0.88453074  0.92846744    -0.10300
C1046       C  0.64063657  0.88433303  0.94040763     0.05900
C1047       C  0.61779465  0.85724760  0.93064774    -0.04100
C1048       C  0.62901061  0.83239569  0.90691204    -0.08500
C1049       C  0.66276806  0.83392985  0.89315721     0.05000
C1050       C  0.68645479  0.85944746  0.90465752    -0.03600
Br1051     Br  0.73322830  0.86232969  0.88699874    -0.03300
H1052       H  0.69332993  0.90441377  0.93738952     0.08900
H1053       H  0.61075830  0.81276413  0.89776123     0.06900
Br1054     Br  0.57164088  0.85179732  0.94972577    -0.03700
C1055       C  0.80411014  0.66014546  0.32777688    -0.10300
C1056       C  0.78150234  0.65921642  0.29903488     0.05900
C1057       C  0.76444950  0.62740229  0.29118546    -0.04100
C1058       C  0.77090004  0.59798153  0.31192962    -0.08500
C1059       C  0.79444263  0.59917399  0.34025456     0.05000
C1060       C  0.81065857  0.63128980  0.34836301    -0.03600
Br1061     Br  0.84262777  0.63899588  0.38642044    -0.03300
H1062       H  0.81823035  0.68436728  0.33453671     0.08900
H1063       H  0.75829148  0.57351903  0.30481311     0.06900
Br1064     Br  0.73413495  0.62104808  0.25164891    -0.03700
C1065       C  0.62521639  0.63680209  0.21865428    -0.10300
C1066       C  0.62456329  0.63589534  0.18177480     0.05900
C1067       C  0.63807138  0.66449611  0.16336817    -0.04100
C1068       C  0.65318060  0.69191845  0.18154477    -0.08500
C1069       C  0.65581709  0.69247717  0.21827377     0.05000
C1070       C  0.64042391  0.66497094  0.23697526    -0.03600
Br1071     Br  0.64211940  0.66314110  0.28680213    -0.03300
H1072       H  0.61511979  0.61488997  0.23321312     0.08900
H1073       H  0.66500648  0.71268446  0.16584991     0.06900
Br1074     Br  0.64165495  0.66607540  0.11338332    -0.03700
C1075       C  0.57130480  0.73387139  0.22128031    -0.10300
C1076       C  0.58285997  0.75828216  0.19664178     0.05900
C1077       C  0.57055218  0.75653113  0.16212085    -0.04100
C1078       C  0.54759291  0.73038371  0.15241087    -0.08500
C1079       C  0.53598689  0.70587830  0.17670281     0.05000
C1080       C  0.54766264  0.70771917  0.21148519    -0.03600
Br1081     Br  0.53361939  0.67387001  0.24546116    -0.03300
H1082       H  0.58205786  0.73398567  0.24739861     0.08900
H1083       H  0.53779666  0.72999608  0.12592770     0.06900
Br1084     Br  0.58535184  0.78867880  0.12664586    -0.03700
C1085       C  0.55806427  0.83453468  0.35525960    -0.10300
C1086       C  0.54209492  0.86394470  0.33968754     0.05900
C1087       C  0.55846457  0.87867877  0.31043096    -0.04100
C1088       C  0.59021692  0.86506616  0.29793829    -0.08500
C1089       C  0.60706100  0.83608673  0.31360214     0.05000
C1090       C  0.59011377  0.82058984  0.34253239    -0.03600
Br1091     Br  0.60993639  0.78130145  0.36635476    -0.03300
H1092       H  0.54571328  0.82249035  0.37757483     0.08900
H1093       H  0.60164825  0.87735467  0.27528365     0.06900
Br1094     Br  0.53759397  0.91695241  0.28563516    -0.03700
C1095       C  0.64455498  0.88089070  0.37821049    -0.10300
C1096       C  0.67314803  0.85880889  0.38535703     0.05900
C1097       C  0.67541624  0.84231920  0.41792040    -0.04100
C1098       C  0.64987887  0.84931056  0.44285221    -0.08500
C1099       C  0.62307205  0.87397538  0.43661754     0.05000
C1100       C  0.62027174  0.88935321  0.40342137    -0.03600
Br1101     Br  0.58674917  0.92460995  0.39040160    -0.03300
H1102       H  0.64173302  0.89335210  0.35302434     0.08900
H1103       H  0.65301253  0.83750210  0.46826177     0.06900
Br1104     Br  0.71434141  0.81375512  0.43186585    -0.03700
C1105       C  0.73603890  0.72891794  0.39592663    -0.10300
C1106       C  0.76014589  0.74118129  0.37098789     0.05900
C1107       C  0.79638849  0.73775162  0.37927357    -0.04100
C1108       C  0.80725008  0.72245785  0.41067129    -0.08500
C1109       C  0.78343083  0.71103360  0.43588567     0.05000
C1110       C  0.74725491  0.71469927  0.42822204    -0.03600
Br1111     Br  0.71188037  0.70045153  0.46055894    -0.03300
H1112       H  0.70827572  0.73144756  0.39085254     0.08900
H1113       H  0.83504600  0.72043957  0.41585941     0.06900
Br1114     Br  0.83403142  0.75289101  0.34970327    -0.03700
C1115       C  0.68512410  0.86473809  0.09183749    -0.10300
C1116       C  0.66049251  0.86247170  0.11864163     0.05900
C1117       C  0.63046787  0.88451536  0.11786476    -0.04100
C1118       C  0.62476197  0.90592565  0.08941643    -0.08500
C1119       C  0.64775893  0.90582844  0.06114650     0.05000
C1120       C  0.67941172  0.88663916  0.06349453    -0.03600
Br1121     Br  0.71657968  0.88963389  0.02989485    -0.03300
H1122       H  0.70913873  0.84967994  0.09302566     0.08900
H1123       H  0.60081651  0.92110399  0.08865486     0.06900
Br1124     Br  0.59426758  0.88670877  0.15291369    -0.03700
C1125       C  0.80130584  0.79121177  0.10600455    -0.10300
C1126       C  0.78014303  0.77019265  0.12768631     0.05900
C1127       C  0.77349203  0.73542984  0.11547177    -0.04100
C1128       C  0.78783371  0.72296228  0.08391614    -0.08500
C1129       C  0.80872718  0.74380615  0.06241102     0.05000
C1130       C  0.81513000  0.77853605  0.07383239    -0.03600
Br1131     Br  0.84393979  0.80926826  0.04702470    -0.03300
H1132       H  0.80714471  0.81769030  0.11398814     0.08900
H1133       H  0.78226288  0.69641881  0.07588012     0.06900
Br1134     Br  0.74584715  0.70165418  0.14022794    -0.03700
C1135       C  0.70095774  0.93000222  0.15877977    -0.10300
C1136       C  0.69285614  0.92079999  0.19338391     0.05900
C1137       C  0.66570899  0.93966007  0.21042070    -0.04100
C1138       C  0.64533986  0.96373201  0.19221405    -0.08500
C1139       C  0.65237033  0.97200503  0.15755008     0.05000
C1140       C  0.68165327  0.95632671  0.14132879    -0.03600
Br1141     Br  0.69698863  0.97166121  0.09639055    -0.03300
H1142       H  0.72196012  0.91666685  0.14526751     0.08900
H1143       H  0.62489138  0.97773026  0.20598060     0.06900
Br1144     Br  0.65627856  0.93657338  0.25960076    -0.03700
C1145       C  0.79119413  0.96374015  0.27943261    -0.10300
C1146       C  0.78212466  0.94318627  0.30827511     0.05900
C1147       C  0.79143743  0.95417394  0.34201469    -0.04100
C1148       C  0.81058677  0.98455065  0.34624595    -0.08500
C1149       C  0.82014871  0.00524114  0.31757061     0.05000
C1150       C  0.80990816  0.99480260  0.28382405    -0.03600
Br1151     Br  0.82138087  0.02081741  0.24284335    -0.03300
H1152       H  0.78395999  0.95545049  0.25338568     0.08900
H1153       H  0.81686417  0.99265575  0.37258738     0.06900
Br1154     Br  0.77616935  0.93099169  0.38382461    -0.03700
C1155       C  0.88878818  0.87906033  0.32998702    -0.10300
C1156       C  0.91163737  0.89589051  0.30712824     0.05900
C1157       C  0.90193570  0.89726659  0.27149172    -0.04100
C1158       C  0.87059812  0.88118495  0.25954360    -0.08500
C1159       C  0.84820397  0.86303213  0.28246804     0.05000
C1160       C  0.85787142  0.86302749  0.31851104    -0.03600
Br1161     Br  0.83056962  0.84316562  0.35551091    -0.03300
H1162       H  0.89531247  0.87794299  0.35746426     0.08900
H1163       H  0.86403272  0.88253248  0.23213257     0.06900
Br1164     Br  0.92960236  0.92257527  0.23856752    -0.03700
C1165       C  0.91728699  0.76075786  0.16807449    -0.10300
C1166       C  0.91334333  0.73522976  0.14181359     0.05900
C1167       C  0.88034257  0.71968550  0.13682488    -0.04100
C1168       C  0.85381737  0.72693441  0.16001044    -0.08500
C1169       C  0.85904925  0.74876880  0.18902058     0.05000
C1170       C  0.89074001  0.76718471  0.19210545    -0.03600
Br1171     Br  0.90130418  0.79880258  0.22957147    -0.03300
H1172       H  0.94215425  0.77368192  0.17205114     0.08900
H1173       H  0.82939421  0.71322458  0.15621730     0.06900
Br1174     Br  0.86937975  0.68493177  0.10228868    -0.03700
C1175       C  0.20267701  0.68258118  0.65601339    -0.10300
C1176       C  0.19262184  0.68701745  0.69101979     0.05900
C1177       C  0.16724536  0.66421585  0.70515954    -0.04100
C1178       C  0.15123705  0.63926104  0.68408696    -0.08500
C1179       C  0.16061008  0.63536351  0.64912053     0.05000
C1180       C  0.18724895  0.65650220  0.63525601    -0.03600
Br1181     Br  0.20368781  0.64983195  0.58856636    -0.03300
H1182       H  0.22196926  0.69978305  0.64459839     0.08900
H1183       H  0.13235108  0.62160537  0.69553781     0.06900
Br1184     Br  0.15465671  0.66386352  0.75366108    -0.03700
C1185       C  0.27941276  0.64088352  0.78744222    -0.10300
C1186       C  0.27293971  0.66505991  0.81418415     0.05900
C1187       C  0.28620370  0.65864287  0.84786398    -0.04100
C1188       C  0.30488828  0.62828406  0.85433497    -0.08500
C1189       C  0.31069781  0.60326130  0.82810595     0.05000
C1190       C  0.29831686  0.61015034  0.79403744    -0.03600
Br1191     Br  0.30733919  0.57985709  0.75516444    -0.03300
H1192       H  0.27010464  0.64611836  0.76128948     0.08900
H1193       H  0.31366017  0.62379086  0.88078632     0.06900
Br1194     Br  0.27755939  0.68859560  0.88738949    -0.03700
C1195       C  0.34257894  0.74376278  0.81678310    -0.10300
C1196       C  0.33594826  0.74354107  0.78063588     0.05900
C1197       C  0.35664590  0.72159466  0.75929344    -0.04100
C1198       C  0.38377073  0.70168088  0.77423123    -0.08500
C1199       C  0.39032880  0.70243413  0.81035488     0.05000
C1200       C  0.36897442  0.72347359  0.83166213    -0.03600
Br1201     Br  0.37638377  0.72859117  0.88093316    -0.03300
H1202       H  0.32710887  0.76010792  0.83401095     0.08900
H1203       H  0.40036517  0.68600222  0.75740647     0.06900
Br1204     Br  0.35063211  0.71889296  0.70969513    -0.03700
C1205       C  0.38255504  0.84381639  0.68927052    -0.10300
C1206       C  0.36081304  0.87141375  0.69985848     0.05900
C1207       C  0.37044384  0.90606777  0.69234506    -0.04100
C1208       C  0.40152209  0.91255077  0.67474743    -0.08500
C1209       C  0.42348421  0.88510138  0.66392450     0.05000
C1210       C  0.41354860  0.85033860  0.67100336    -0.03600
Br1211     Br  0.43943855  0.81079857  0.65417533    -0.03300
H1212       H  0.37486396  0.81705672  0.69432209     0.08900
H1213       H  0.40878842  0.93948446  0.67004671     0.06900
Br1214     Br  0.34327835  0.94588911  0.70692599    -0.03700
C1215       C  0.32291169  0.82879859  0.58639421    -0.10300
C1216       C  0.32480596  0.86534486  0.58216408     0.05900
C1217       C  0.30702644  0.88704232  0.60586572    -0.04100
C1218       C  0.28652670  0.87213415  0.63173069    -0.08500
C1219       C  0.28391676  0.83565141  0.63581671     0.05000
C1220       C  0.30283346  0.81381528  0.61302590    -0.03600
Br1221     Br  0.29920285  0.76382885  0.61435119    -0.03300
H1222       H  0.33578673  0.81174839  0.56777385     0.08900
H1223       H  0.27184485  0.88962802  0.64846559     0.06900
Br1224     Br  0.30586284  0.93712847  0.60237385    -0.03700
C1225       C  0.18255435  0.75165411  0.58131297    -0.10300
C1226       C  0.15946609  0.74859888  0.60960300     0.05900
C1227       C  0.13092207  0.72516302  0.60665534    -0.04100
C1228       C  0.12538820  0.70709141  0.57574475    -0.08500
C1229       C  0.14699886  0.71163086  0.54652298     0.05000
C1230       C  0.17684163  0.73337436  0.55007109    -0.03600
Br1231     Br  0.21152475  0.73939871  0.51442885    -0.03300
H1232       H  0.20523778  0.76845434  0.58342372     0.08900
H1233       H  0.10287065  0.69002126  0.57450826     0.06900
Br1234     Br  0.09626385  0.71697545  0.64222259    -0.03700
C1235       C  0.09895436  0.73822429  0.81304938    -0.10300
C1236       C  0.10612806  0.77425598  0.81491267     0.05900
C1237       C  0.08538692  0.79542912  0.83693893    -0.04100
C1238       C  0.05723274  0.78044755  0.85499195    -0.08500
C1239       C  0.05008603  0.74454963  0.85217981     0.05000
C1240       C  0.07150001  0.72338910  0.83127190    -0.03600
Br1241     Br  0.06256080  0.67459253  0.82331577    -0.03300
H1242       H  0.11449797  0.72111426  0.79676795     0.08900
H1243       H  0.04024092  0.79700059  0.87049024     0.06900
Br1244     Br  0.09283547  0.84469607  0.84238834    -0.03700
C1245       C  0.07521032  0.87867231  0.66894257    -0.10300
C1246       C  0.07414553  0.84898674  0.69041578     0.05900
C1247       C  0.04131066  0.83806469  0.70347205    -0.04100
C1248       C  0.01072481  0.85546424  0.69277486    -0.08500
C1249       C  0.01215060  0.88384106  0.66949864     0.05000
C1250       C  0.04513389  0.89613596  0.65878841    -0.03600
Br1251     Br  0.05212563  0.93663769  0.63018622    -0.03300
H1252       H  0.09971836  0.88825788  0.65889271     0.08900
H1253       H  0.98567036  0.84594542  0.70179561     0.06900
Br1254     Br  0.03568132  0.79934192  0.73477081    -0.03700
C1255       C  0.26887838  0.01401857  0.80706778    -0.10300
C1256       C  0.29362014  0.01217296  0.83430038     0.05900
C1257       C  0.30632218  0.97912968  0.84432052    -0.04100
C1258       C  0.29640030  0.94963136  0.82594525    -0.08500
C1259       C  0.27386359  0.95127979  0.79700137     0.05000
C1260       C  0.25890404  0.98401646  0.78834515    -0.03600
Br1261     Br  0.22610615  0.99034762  0.75090612    -0.03300
H1262       H  0.25831326  0.03912234  0.79921329     0.08900
H1263       H  0.30797539  0.92509656  0.83396490     0.06900
Br1264     Br  0.33831857  0.97131731  0.88209361    -0.03700
C1265       C  0.15528377  0.92681173  0.68117268    -0.10300
C1266       C  0.15342679  0.91945549  0.71708661     0.05900
C1267       C  0.13264394  0.94131839  0.73845433    -0.04100
C1268       C  0.11559091  0.97038431  0.72375711    -0.08500
C1269       C  0.11819860  0.97752104  0.68794019     0.05000
C1270       C  0.13803022  0.95522458  0.66662335    -0.03600
Br1271     Br  0.14538196  0.96392938  0.61782417    -0.03300
H1272       H  0.17073781  0.91051397  0.66390606     0.08900
H1273       H  0.10087807  0.98795380  0.74046445     0.06900
Br1274     Br  0.12789436  0.93426723  0.78769794    -0.03700
C1275       C  0.24417968  0.90843266  0.91523091    -0.10300
C1276       C  0.28018724  0.90456611  0.92201497     0.05900
C1277       C  0.30095364  0.88463665  0.89938718    -0.04100
C1278       C  0.28558120  0.86832943  0.87122830    -0.08500
C1279       C  0.24946308  0.87137999  0.86416166     0.05000
C1280       C  0.22872642  0.89248929  0.88603919    -0.03600
Br1281     Br  0.17977490  0.89986708  0.87800445    -0.03300
H1282       H  0.22805110  0.92369542  0.93284287     0.08900
H1283       H  0.30264673  0.85284868  0.85474483     0.06900
Br1284     Br  0.35014071  0.87609500  0.90637867    -0.03700
C1285       C  0.16505388  0.75284898  0.95879741    -0.10300
C1286       C  0.13836561  0.72746902  0.95793322     0.05900
C1287       C  0.12777825  0.71430873  0.92518208    -0.04100
C1288       C  0.14518590  0.72440710  0.89515809    -0.08500
C1289       C  0.17330260  0.74799264  0.89585462     0.05000
C1290       C  0.18243344  0.76333188  0.92823357    -0.03600
Br1291     Br  0.21831630  0.79808769  0.93321379    -0.03300
H1292       H  0.17328378  0.76387741  0.98347416     0.08900
H1293       H  0.13687998  0.71254255  0.87095304     0.06900
Br1294     Br  0.08998901  0.68205484  0.91810492    -0.03700
C1295       C  0.81415841  0.45034576  0.70830256    -0.10300
C1296       C  0.77896633  0.44064947  0.71058932     0.05900
C1297       C  0.75386958  0.45725452  0.68955637    -0.04100
C1298       C  0.76482061  0.48190965  0.66503962    -0.08500
C1299       C  0.80049802  0.49016772  0.66148292     0.05000
C1300       C  0.82509256  0.47506872  0.68435395    -0.03600
Br1301     Br  0.87354509  0.48832871  0.68633618    -0.03300
H1302       H  0.83350297  0.43774959  0.72472281     0.08900
H1303       H  0.74554172  0.49444114  0.64852068     0.06900
Br1304     Br  0.70509216  0.44583394  0.69211327    -0.03700
C1305       C  0.62859144  0.43352444  0.77284987    -0.10300
C1306       C  0.66067082  0.42009180  0.78532485     0.05900
C1307       C  0.67847418  0.44042219  0.81103868    -0.04100
C1308       C  0.66361938  0.47126110  0.82457202    -0.08500
C1309       C  0.63137842  0.48400771  0.81284816     0.05000
C1310       C  0.61419723  0.46513298  0.78612671    -0.03600
Br1311     Br  0.57103962  0.48186528  0.76699877    -0.03300
H1312       H  0.61443369  0.41930407  0.75296374     0.08900
H1313       H  0.67795512  0.48602643  0.84400843     0.06900
Br1314     Br  0.72483507  0.43010716  0.82752476    -0.03700
C1315       C  0.56425700  0.34362723  0.84754043    -0.10300
C1316       C  0.57440048  0.33926000  0.81288984     0.05900
C1317       C  0.55876088  0.35910202  0.78640551    -0.04100
C1318       C  0.53478675  0.38500104  0.79534845    -0.08500
C1319       C  0.52630554  0.39094669  0.83039113     0.05000
C1320       C  0.54006451  0.36896618  0.85657467    -0.03600
Br1321     Br  0.52618804  0.37039408  0.90477186    -0.03300
H1322       H  0.57636702  0.32805149  0.86788703     0.08900
H1323       H  0.52313346  0.40086980  0.77502458     0.06900
Br1324     Br  0.57087426  0.35333419  0.73834115    -0.03700
C1325       C  0.57947571  0.23751555  0.70700228    -0.10300
C1326       C  0.59538436  0.26823697  0.69418265     0.05900
C1327       C  0.57936899  0.28480965  0.66524669    -0.04100
C1328       C  0.54870738  0.27057495  0.65014794    -0.08500
C1329       C  0.53370202  0.23952092  0.66286044     0.05000
C1330       C  0.54936104  0.22329280  0.69177085    -0.03600
Br1331     Br  0.52975268  0.18207695  0.71239532    -0.03300
H1332       H  0.59055157  0.22409758  0.72927232     0.08900
H1333       H  0.53674144  0.28362858  0.62812843     0.06900
Br1334     Br  0.59844373  0.32602705  0.64439130    -0.03700
C1335       C  0.64333413  0.20553407  0.56459722    -0.10300
C1336       C  0.63141962  0.23364982  0.54442840     0.05900
C1337       C  0.63956927  0.26809835  0.55481518    -0.04100
C1338       C  0.65868632  0.27364030  0.58557300    -0.08500
C1339       C  0.66955128  0.24520604  0.60599571     0.05000
C1340       C  0.66227196  0.21093864  0.59488326    -0.03600
Br1341     Br  0.67888324  0.17003871  0.61895138    -0.03300
H1342       H  0.63846536  0.17886667  0.55645096     0.08900
H1343       H  0.66418466  0.30007412  0.59405027     0.06900
Br1344     Br  0.62361505  0.30821264  0.52940767    -0.03700
C1345       C  0.78962427  0.36988737  0.64087052    -0.10300
C1346       C  0.75255619  0.36846838  0.64123155     0.05900
C1347       C  0.73455357  0.38387787  0.61323945    -0.04100
C1348       C  0.75361446  0.39833606  0.58519063    -0.08500
C1349       C  0.79072792  0.39828209  0.58456456     0.05000
C1350       C  0.80853518  0.38460871  0.61356574    -0.03600
Br1351     Br  0.85867178  0.38110633  0.61640382    -0.03300
H1352       H  0.80470085  0.35779323  0.66144451     0.08900
H1353       H  0.73929948  0.40855314  0.56309352     0.06900
Br1354     Br  0.68456170  0.38297267  0.61050405    -0.03700
C1355       C  0.81592053  0.13568916  0.64864056    -0.10300
C1356       C  0.82544946  0.11376201  0.67634493     0.05900
C1357       C  0.80950574  0.11847417  0.70915307    -0.04100
C1358       C  0.78270627  0.14296668  0.71292507    -0.08500
C1359       C  0.77192096  0.16308745  0.68448832     0.05000
C1360       C  0.78906564  0.15956107  0.65212662    -0.03600
Br1361     Br  0.77637024  0.18517912  0.61072157    -0.03300
H1362       H  0.82740493  0.13264059  0.62304035     0.08900
H1363       H  0.77107155  0.14708550  0.73823806     0.06900
Br1364     Br  0.82406445  0.09344259  0.74982374    -0.03700
C1365       C  0.65305048  0.16713433  0.80694273    -0.10300
C1366       C  0.68948236  0.17244475  0.80433485     0.05900
C1367       C  0.71151067  0.14551076  0.81696135    -0.04100
C1368       C  0.69695652  0.11433833  0.83076106    -0.08500
C1369       C  0.66037404  0.10967983  0.83404162     0.05000
C1370       C  0.63857421  0.13723151  0.82225233    -0.03600
Br1371     Br  0.58835621  0.13637742  0.82516834    -0.03300
H1372       H  0.63518197  0.18714511  0.79779853     0.08900
H1373       H  0.71443414  0.09392479  0.83972432     0.06900
Br1374     Br  0.76139655  0.14952766  0.81558677    -0.03700
C1375       C  0.91283998  0.34609634  0.83202094    -0.10300
C1376       C  0.91213882  0.37837553  0.84994981     0.05900
C1377       C  0.88205026  0.39966088  0.84763710    -0.04100
C1378       C  0.85493651  0.38937286  0.82640502    -0.08500
C1379       C  0.85601051  0.35789150  0.80755507     0.05000
C1380       C  0.88516773  0.33577379  0.81074457    -0.03600
Br1381     Br  0.88909135  0.29160225  0.78729419    -0.03300
H1382       H  0.93549629  0.32914852  0.83366491     0.08900
H1383       H  0.83278012  0.40695284  0.82432693     0.06900
Br1384     Br  0.87512263  0.44429107  0.86992154    -0.03700
C1385       C  0.89208918  0.20340873  0.72131733    -0.10300
C1386       C  0.90349212  0.21405766  0.68796467     0.05900
C1387       C  0.88194388  0.23749421  0.66948320    -0.04100
C1388       C  0.85057961  0.25002194  0.68406671    -0.08500
C1389       C  0.83887476  0.23998079  0.71755795     0.05000
C1390       C  0.86008502  0.21565056  0.73590780    -0.03600
Br1391     Br  0.84703178  0.19811084  0.78077985    -0.03300
H1392       H  0.90804203  0.18526940  0.73605807     0.08900
H1393       H  0.83538800  0.26838369  0.66882415     0.06900
Br1394     Br  0.89528359  0.25530616  0.62472544    -0.03700
C1395       C  0.78157565  0.37372945  0.91295500    -0.10300
C1396       C  0.81695101  0.36676627  0.91876266     0.05900
C1397       C  0.83225122  0.33784263  0.90150601    -0.04100
C1398       C  0.81290452  0.31884603  0.87630258    -0.08500
C1399       C  0.77746050  0.32681999  0.86976318     0.05000
C1400       C  0.76171785  0.35362828  0.89002368    -0.03600
Br1401     Br  0.71235935  0.36311747  0.89007826    -0.03300
H1402       H  0.76864284  0.39394119  0.92803560     0.08900
H1403       H  0.82566340  0.29825968  0.86162487     0.06900
Br1404     Br  0.87858838  0.32255095  0.91294731    -0.03700
C1405       C  0.65702730  0.23990581  0.95663483    -0.10300
C1406       C  0.65889729  0.20337336  0.95600709     0.05900
C1407       C  0.66408582  0.18584002  0.92431443    -0.04100
C1408       C  0.66764285  0.20507744  0.89374015    -0.08500
C1409       C  0.66456275  0.24159815  0.89396296     0.05000
C1410       C  0.65875027  0.25903680  0.92583385    -0.03600
Br1411     Br  0.64716061  0.30776736  0.92849027    -0.03300
H1412       H  0.65120404  0.25341757  0.98082601     0.08900
H1413       H  0.67221774  0.19127775  0.86950427     0.06900
Br1414     Br  0.66537742  0.13581398  0.92173979    -0.03700
C1415       C  0.66382209  0.46718900  0.21020556    -0.10300
C1416       C  0.67776852  0.44675177  0.18313129     0.05900
C1417       C  0.67583693  0.45882040  0.14864200    -0.04100
C1418       C  0.65909743  0.49021150  0.14142471    -0.08500
C1419       C  0.64401950  0.51033026  0.16806971     0.05000
C1420       C  0.64685914  0.49890347  0.20292013    -0.03600
Br1421     Br  0.62628054  0.52410526  0.24104121    -0.03300
H1422       H  0.66533245  0.45802484  0.23686187     0.08900
H1423       H  0.65805477  0.49904522  0.11463379     0.06900
Br1424     Br  0.69694191  0.43433170  0.11035813    -0.03700
C1425       C  0.79360548  0.46897400  0.31215589    -0.10300
C1426       C  0.78437184  0.47420289  0.34685373     0.05900
C1427       C  0.75820180  0.45361106  0.36215593    -0.04100
C1428       C  0.74185457  0.42741148  0.34239025    -0.08500
C1429       C  0.75141651  0.42193873  0.30744597     0.05000
C1430       C  0.77758522  0.44336945  0.29235167    -0.03600
Br1431     Br  0.79350867  0.43989781  0.24480002    -0.03300
H1432       H  0.81317168  0.48552186  0.30014024     0.08900
H1433       H  0.72272793  0.41058908  0.35462687     0.06900
Br1434     Br  0.74458790  0.46042141  0.40966613    -0.03700
C1435       C  0.76311526  0.34752012  0.42121219    -0.10300
C1436       C  0.78301867  0.35538608  0.39138097     0.05900
C1437       C  0.80908722  0.38159957  0.39419552    -0.04100
C1438       C  0.81568632  0.39738436  0.42616459    -0.08500
C1439       C  0.79783043  0.38772703  0.45659080     0.05000
C1440       C  0.77008645  0.36335584  0.45355841    -0.03600
Br1441     Br  0.74094482  0.34937521  0.49185609    -0.03300
H1442       H  0.74240517  0.32830620  0.41965312     0.08900
H1443       H  0.83618899  0.41685048  0.42719245     0.06900
Br1444     Br  0.83906929  0.39703738  0.35692742    -0.03700
C1445       C  0.66019989  0.23788056  0.36920648    -0.10300
C1446       C  0.65834207  0.27414379  0.36278392     0.05900
C1447       C  0.63666880  0.29475389  0.38439826    -0.04100
C1448       C  0.61885426  0.27907215  0.41238802    -0.08500
C1449       C  0.62144791  0.24290957  0.41865748     0.05000
C1450       C  0.64219982  0.22232524  0.39651215    -0.03600
Br1451     Br  0.65019755  0.17332680  0.40418264    -0.03300
H1452       H  0.67626727  0.22106844  0.35302806     0.08900
H1453       H  0.60346256  0.29526970  0.42978114     0.06900
Br1454     Br  0.63149478  0.34418546  0.37818266    -0.03700
C1455       C  0.63625447  0.16057490  0.17395554    -0.10300
C1456       C  0.66034816  0.15982370  0.20169063     0.05900
C1457       C  0.67501410  0.12731173  0.21137943    -0.04100
C1458       C  0.66530644  0.09697603  0.19334901    -0.08500
C1459       C  0.64040309  0.09785781  0.16626333     0.05000
C1460       C  0.62583461  0.13044780  0.15673354    -0.03600
Br1461     Br  0.59059841  0.13717773  0.12155360    -0.03300
H1462       H  0.62419225  0.18490873  0.16590031     0.08900
H1463       H  0.67650378  0.07227671  0.20157461     0.06900
Br1464     Br  0.70706398  0.12148921  0.24957593    -0.03700
C1465       C  0.80559702  0.16788473  0.25896595    -0.10300
C1466       C  0.78536182  0.18827914  0.28188747     0.05900
C1467       C  0.78624733  0.18010753  0.31808761    -0.04100
C1468       C  0.80682526  0.15264491  0.33010116    -0.08500
C1469       C  0.82586098  0.13167974  0.30720878     0.05000
C1470       C  0.82530767  0.13942559  0.27127865    -0.03600
Br1471     Br  0.85169964  0.11261266  0.23825257    -0.03300
H1472       H  0.80564241  0.17367175  0.23133128     0.08900
H1473       H  0.80648875  0.14645610  0.35767189     0.06900
Br1474     Br  0.75990440  0.20368351  0.35392383    -0.03700
C1475       C  0.78121437  0.39727761  0.09748444    -0.10300
C1476       C  0.77260977  0.36236563  0.10399105     0.05900
C1477       C  0.78286787  0.33648476  0.07999897    -0.04100
C1478       C  0.80159872  0.34607475  0.05005888    -0.08500
C1479       C  0.80965279  0.38134253  0.04329874     0.05000
C1480       C  0.79829197  0.40716161  0.06721330    -0.03600
Br1481     Br  0.80072408  0.45678882  0.05935758    -0.03300
H1482       H  0.77337050  0.41750323  0.11569872     0.08900
H1483       H  0.80972305  0.32590668  0.03191570     0.06900
Br1484     Br  0.77344795  0.28794281  0.08770674    -0.03700
C1485       C  0.65694905  0.24140411  0.12485983    -0.10300
C1486       C  0.69199326  0.23616381  0.13522614     0.05900
C1487       C  0.71121227  0.20900223  0.11904862    -0.04100
C1488       C  0.69590382  0.18979567  0.09169646    -0.08500
C1489       C  0.66116934  0.19606223  0.08120371     0.05000
C1490       C  0.64155808  0.22170946  0.09855785    -0.03600
Br1491     Br  0.59434041  0.23318510  0.08561105    -0.03300
H1492       H  0.64096154  0.26122633  0.13722408     0.08900
H1493       H  0.71133832  0.17023638  0.07816870     0.06900
Br1494     Br  0.75793748  0.19668537  0.13275164    -0.03700
C1495       C  0.02340663  0.34219068  0.16387864    -0.10300
C1496       C  0.01542347  0.37658293  0.15394074     0.05900
C1497       C  0.03799987  0.40411812  0.16383485    -0.04100
C1498       C  0.06874454  0.39657564  0.18119185    -0.08500
C1499       C  0.07735815  0.36231764  0.19008225     0.05000
C1500       C  0.05421968  0.33485040  0.18212438    -0.03600
Br1501     Br  0.06414023  0.28710598  0.19376868    -0.03300
H1502       H  0.00597489  0.32099116  0.15694687     0.08900
H1503       H  0.08590197  0.41792584  0.18848130     0.06900
Br1504     Br  0.02821840  0.45310316  0.15755645    -0.03700
C1505       C  0.83866189  0.36944878  0.17829768    -0.10300
C1506       C  0.83682585  0.33307046  0.18346653     0.05900
C1507       C  0.86191664  0.31153792  0.16727132    -0.04100
C1508       C  0.88849965  0.32684287  0.14725378    -0.08500
C1509       C  0.89003695  0.36332316  0.14236727     0.05000
C1510       C  0.86407317  0.38453277  0.15739337    -0.03600
Br1511     Br  0.86339635  0.43463638  0.15385808    -0.03300
H1512       H  0.82035785  0.38676600  0.19104258     0.08900
H1513       H  0.90888614  0.31031325  0.13654565     0.06900
Br1514     Br  0.86351347  0.26198703  0.17453783    -0.03700
C1515       C  0.07164091  0.22862288  0.33415047    -0.10300
C1516       C  0.05210496  0.20439473  0.31546953     0.05900
C1517       C  0.06022661  0.19889157  0.27995774    -0.04100
C1518       C  0.08695171  0.21839689  0.26362146    -0.08500
C1519       C  0.10558456  0.24428138  0.28198770     0.05000
C1520       C  0.09763634  0.24854607  0.31822351    -0.03600
Br1521     Br  0.12003124  0.28062286  0.34963582    -0.03300
H1522       H  0.06538211  0.23342325  0.36130820     0.08900
H1523       H  0.09279730  0.21358455  0.23642427     0.06900
Br1524     Br  0.03581695  0.16438848  0.25321889    -0.03700
C1525       C  0.90401166  0.22698318  0.35177979    -0.10300
C1526       C  0.92573801  0.21509463  0.32471150     0.05900
C1527       C  0.91698438  0.22357678  0.28993997    -0.04100
C1528       C  0.88700022  0.24367752  0.28314101    -0.08500
C1529       C  0.86548106  0.25510569  0.31051470     0.05000
C1530       C  0.87441920  0.24683524  0.34507926    -0.03600
Br1531     Br  0.84847754  0.26360735  0.38473264    -0.03300
H1532       H  0.91050463  0.22175589  0.37875473     0.08900
H1533       H  0.87991792  0.24952893  0.25643207     0.06900
Br1534     Br  0.94330649  0.20684737  0.25077779    -0.03700
C1535       C  0.40590619  0.82582731  0.33735357    -0.10300
C1536       C  0.41252433  0.86217159  0.33614491     0.05900
C1537       C  0.38688225  0.88373151  0.32077281    -0.04100
C1538       C  0.35595809  0.86935232  0.30772084    -0.08500
C1539       C  0.34876866  0.83325303  0.30875223     0.05000
C1540       C  0.37436723  0.81134337  0.32409175    -0.03600
Br1541     Br  0.36826663  0.76175968  0.32668757    -0.03300
H1542       H  0.42523410  0.80861607  0.34888101     0.08900
H1543       H  0.33680344  0.88711844  0.29717881     0.06900
Br1544     Br  0.39291366  0.93318185  0.31449056    -0.03700
C1545       C  0.38187515  0.74036167  0.21690200    -0.10300
C1546       C  0.36426728  0.75555911  0.18870816     0.05900
C1547       C  0.37130037  0.74438146  0.15450388    -0.04100
C1548       C  0.39542757  0.71811129  0.14893979    -0.08500
C1549       C  0.41383666  0.70311053  0.17683269     0.05000
C1550       C  0.40686228  0.71429111  0.21115740    -0.03600
Br1551     Br  0.42973209  0.69417322  0.25085191    -0.03300
H1552       H  0.37539439  0.74795050  0.24330912     0.08900
H1553       H  0.40111087  0.71091872  0.12223664     0.06900
Br1554     Br  0.34957491  0.76479771  0.11398111    -0.03700
C1555       C  0.13454347  0.72386585  0.39735523    -0.10300
C1556       C  0.15483232  0.70309873  0.41919952     0.05900
C1557       C  0.19122614  0.70078563  0.41278746    -0.04100
C1558       C  0.20660699  0.71984547  0.38530631    -0.08500
C1559       C  0.18645914  0.74242028  0.36442635     0.05000
C1560       C  0.14958150  0.74388572  0.37098610    -0.03600
Br1561     Br  0.11632816  0.77307262  0.34695913    -0.03300
H1562       H  0.10670737  0.72636781  0.40231509     0.08900
H1563       H  0.23451117  0.71761512  0.38084873     0.06900
Br1564     Br  0.22081844  0.67149218  0.44059893    -0.03700
C1565       C  0.28455857  0.84777064  0.45825484    -0.10300
C1566       C  0.31804570  0.86273570  0.45633921     0.05900
C1567       C  0.33337292  0.86806674  0.42365831    -0.04100
C1568       C  0.31367040  0.86305581  0.39372112    -0.08500
C1569       C  0.27871700  0.85182774  0.39532226     0.05000
C1570       C  0.26481059  0.84196786  0.42805444    -0.03600
Br1571     Br  0.21873488  0.82292402  0.43437995    -0.03300
H1572       H  0.27275213  0.84268542  0.48335533     0.08900
H1573       H  0.32551626  0.86933348  0.36930188     0.06900
Br1574     Br  0.38094263  0.88287195  0.41831067    -0.03700
C1575       C  0.09595422  0.86661890  0.31697988    -0.10300
C1576       C  0.10641647  0.87197539  0.28207794     0.05900
C1577       C  0.08462648  0.89371058  0.26136796    -0.04100
C1578       C  0.05255708  0.90690464  0.27491388    -0.08500
C1579       C  0.04200545  0.90028267  0.30957953     0.05000
C1580       C  0.06472749  0.88032383  0.33061494    -0.03600
Br1581     Br  0.05343977  0.86845194  0.37789013    -0.03300
H1582       H  0.11212472  0.85111363  0.33420799     0.08900
H1583       H  0.03594231  0.92273746  0.25834416     0.06900
Br1584     Br  0.09739891  0.90704299  0.21497703    -0.03700
C1585       C  0.08291675  0.71006622  0.19070161    -0.10300
C1586       C  0.08681202  0.74541876  0.19967854     0.05900
C1587       C  0.06539230  0.77061728  0.18387097    -0.04100
C1588       C  0.04115120  0.76006648  0.15883550    -0.08500
C1589       C  0.03732634  0.72454837  0.14992149     0.05000
C1590       C  0.05884725  0.69936162  0.16610979    -0.03600
Br1591     Br  0.05601353  0.64957696  0.15918922    -0.03300
H1592       H  0.09901792  0.69023802  0.20297918     0.08900
H1593       H  0.02432520  0.77960421  0.14715145     0.06900
Br1594     Br  0.06769209  0.81924644  0.19524329    -0.03700
C1595       C  0.15951240  0.73510828  0.13788954    -0.10300
C1596       C  0.15764239  0.77203975  0.14040326     0.05900
C1597       C  0.13700186  0.78988628  0.11582746    -0.04100
C1598       C  0.12161257  0.77110802  0.08803564    -0.08500
C1599       C  0.12540043  0.73443121  0.08499187     0.05000
C1600       C  0.14372620  0.71648192  0.11108070    -0.03600
Br1601     Br  0.15195231  0.66689263  0.10991235    -0.03300
H1602       H  0.17444200  0.71999378  0.15654014     0.08900
H1603       H  0.10747336  0.78532808  0.06811384     0.06900
Br1604     Br  0.13031626  0.83940647  0.11809570    -0.03700
C1605       C  0.26776164  0.86717648  0.04776286    -0.10300
C1606       C  0.28634311  0.89876071  0.04854419     0.05900
C1607       C  0.29688846  0.91251599  0.08095294    -0.04100
C1608       C  0.29128646  0.89355830  0.11124413    -0.08500
C1609       C  0.27541033  0.86054333  0.11033294     0.05000
C1610       C  0.26227645  0.84789531  0.07815674    -0.03600
Br1611     Br  0.23905834  0.80368389  0.07248458    -0.03300
H1612       H  0.25923968  0.85625893  0.02312574     0.08900
H1613       H  0.30055236  0.90445968  0.13562705     0.06900
Br1614     Br  0.32005836  0.95651305  0.08602540    -0.03700
C1615       C  0.30150283  0.14360065  0.17469621    -0.10300
C1616       C  0.28037777  0.12156546  0.15470337     0.05900
C1617       C  0.24508065  0.13177597  0.14946951    -0.04100
C1618       C  0.23173192  0.16312351  0.16439435    -0.08500
C1619       C  0.25281425  0.18495909  0.18534779     0.05000
C1620       C  0.28851156  0.17438762  0.19000244    -0.03600
Br1621     Br  0.32283727  0.20004245  0.21641744    -0.03300
H1622       H  0.32855514  0.13632892  0.17921028     0.08900
H1623       H  0.20468271  0.17023466  0.15976946     0.06900
Br1624     Br  0.21455765  0.10434082  0.12086078    -0.03700
C1625       C  0.23767149  0.94622138  0.16941681    -0.10300
C1626       C  0.25765624  0.93007580  0.19592668     0.05900
C1627       C  0.29009169  0.94627180  0.20476078    -0.04100
C1628       C  0.30157869  0.97644095  0.18752758    -0.08500
C1629       C  0.28172516  0.99244858  0.16149007     0.05000
C1630       C  0.24934809  0.97701122  0.15243329    -0.03600
Br1631     Br  0.22133743  0.99591498  0.11558779    -0.03300
H1632       H  0.21311541  0.93463951  0.16144019     0.08900
H1633       H  0.32635449  0.98795352  0.19500850     0.06900
Br1634     Br  0.32115613  0.93004942  0.24044213    -0.03700
C1635       C  0.15012103  0.15257931  0.28112895    -0.10300
C1636       C  0.16154578  0.17422423  0.30827037     0.05900
C1637       C  0.14627684  0.17082803  0.34173854    -0.04100
C1638       C  0.12123694  0.14552584  0.34754130    -0.08500
C1639       C  0.11205968  0.12177873  0.32139773     0.05000
C1640       C  0.12544200  0.12646913  0.28741429    -0.03600
Br1641     Br  0.11066829  0.09860503  0.24858735    -0.03300
H1642       H  0.16008016  0.15620901  0.25497122     0.08900
H1643       H  0.11141868  0.14257682  0.37383431     0.06900
Br1644     Br  0.15981234  0.19731379  0.38234681    -0.03700
C1645       C  0.15381826  0.98749986  0.35381045    -0.10300
C1646       C  0.13254967  0.00007877  0.32677827     0.05900
C1647       C  0.13762830  0.98820127  0.29243678    -0.04100
C1648       C  0.16269108  0.96247134  0.28604065    -0.08500
C1649       C  0.18256396  0.94897919  0.31357857     0.05000
C1650       C  0.17869841  0.96205408  0.34742745    -0.03600
Br1651     Br  0.20600031  0.94486914  0.38588445    -0.03300
H1652       H  0.15112896  0.99750602  0.38011678     0.08900
H1653       H  0.16517972  0.95149356  0.26009482     0.06900
Br1654     Br  0.10926423  0.00379173  0.25430338    -0.03700
C1655       C  0.27223974  0.43163123  0.81444763    -0.10300
C1656       C  0.28205683  0.42272148  0.77996696     0.05900
C1657       C  0.31057360  0.44088753  0.76517913    -0.04100
C1658       C  0.32725205  0.46775501  0.78428260    -0.08500
C1659       C  0.31690708  0.47619754  0.81856342     0.05000
C1660       C  0.28924146  0.45758320  0.83351979    -0.03600
Br1661     Br  0.27174860  0.46819138  0.87927615    -0.03300
H1662       H  0.25087990  0.41828109  0.82720388     0.08900
H1663       H  0.34815498  0.48241113  0.77217724     0.06900
Br1664     Br  0.32786144  0.43055801  0.71946658    -0.03700
C1665       C  0.16179139  0.44682008  0.64829660    -0.10300
C1666       C  0.17466761  0.44778398  0.68262224     0.05900
C1667       C  0.18677158  0.48011338  0.69615763    -0.04100
C1668       C  0.18216089  0.51062783  0.67679387    -0.08500
C1669       C  0.16597270  0.50978129  0.64402425     0.05000
C1670       C  0.15795119  0.47731218  0.62891349    -0.03600
Br1671     Br  0.14105101  0.47339226  0.58211048    -0.03300
H1672       H  0.15371742  0.42236840  0.63662634     0.08900
H1673       H  0.18903639  0.53539952  0.68861380     0.06900
Br1674     Br  0.20727503  0.48609089  0.74160092    -0.03700
C1675       C  0.36594475  0.29204941  0.66984811    -0.10300
C1676       C  0.34244640  0.27106164  0.68882327     0.05900
C1677       C  0.35064284  0.23454720  0.69093725    -0.04100
C1678       C  0.38105581  0.22078009  0.67552815    -0.08500
C1679       C  0.40486392  0.24184013  0.65776450     0.05000
C1680       C  0.39681919  0.27789628  0.65478272    -0.03600
Br1681     Br  0.42673616  0.30873416  0.62930713    -0.03300
H1682       H  0.36066467  0.31968516  0.66715087     0.08900
H1683       H  0.38659921  0.19314712  0.67819832     0.06900
Br1684     Br  0.32201850  0.19987075  0.71312156    -0.03700
C1685       C  0.38049637  0.41431070  0.84580839    -0.10300
C1686       C  0.40645575  0.41883626  0.82063440     0.05900
C1687       C  0.40318587  0.40169516  0.78816890    -0.04100
C1688       C  0.37664036  0.37721905  0.78321212    -0.08500
C1689       C  0.35270181  0.37020600  0.80989091     0.05000
C1690       C  0.35441702  0.38977176  0.84133405    -0.03600
Br1691     Br  0.32455849  0.38349009  0.88136416    -0.03300
H1692       H  0.38217228  0.42742103  0.87077965     0.08900
H1693       H  0.37453633  0.36394045  0.75836852     0.06900
Br1694     Br  0.43410469  0.41062636  0.74980443    -0.03700
C1695       C  0.23454410  0.17233696  0.83287169    -0.10300
C1696       C  0.25573185  0.19740766  0.81673409     0.05900
C1697       C  0.29299506  0.19337434  0.81999552    -0.04100
C1698       C  0.30729787  0.16511043  0.83765735    -0.08500
C1699       C  0.28639421  0.13866531  0.85074065     0.05000
C1700       C  0.24950171  0.14265103  0.84886868    -0.03600
Br1701     Br  0.21826288  0.10814209  0.86708678    -0.03300
H1702       H  0.20636466  0.17475161  0.83143526     0.08900
H1703       H  0.33552124  0.16226198  0.83846027     0.06900
Br1704     Br  0.32877574  0.22220411  0.79951757    -0.03700
C1705       C  0.17031116  0.15175098  0.65522899    -0.10300
C1706       C  0.17678613  0.16165176  0.68973754     0.05900
C1707       C  0.16442404  0.14060139  0.71714785    -0.04100
C1708       C  0.14466812  0.11078523  0.70949050    -0.08500
C1709       C  0.13699539  0.10180823  0.67482008     0.05000
C1710       C  0.15100449  0.12209933  0.64749461    -0.03600
Br1711     Br  0.14712118  0.11019722  0.59890434    -0.03300
H1712       H  0.18048960  0.16727013  0.63394998     0.08900
H1713       H  0.13452666  0.09510587  0.73063969     0.06900
Br1714     Br  0.17136464  0.15253653  0.76512526    -0.03700
C1715       C  0.05971826  0.22940139  0.66285214    -0.10300
C1716       C  0.03448314  0.21795660  0.68674963     0.05900
C1717       C  0.04294030  0.22066400  0.72267720    -0.04100
C1718       C  0.07543421  0.23503019  0.73364249    -0.08500
C1719       C  0.10036415  0.24739812  0.70949809     0.05000
C1720       C  0.09176561  0.24390381  0.67348095    -0.03600
Br1721     Br  0.12215774  0.25746981  0.63602221    -0.03300
H1722       H  0.05425731  0.22759788  0.63520884     0.08900
H1723       H  0.08096650  0.23692493  0.76124182     0.06900
Br1724     Br  0.01196035  0.20343245  0.75788412    -0.03700
C1725       C  0.06705262  0.34140537  0.80247621    -0.10300
C1726       C  0.07810964  0.36775256  0.77981842     0.05900
C1727       C  0.06568574  0.40201208  0.78338450    -0.04100
C1728       C  0.04397750  0.41020945  0.81096056    -0.08500
C1729       C  0.03370773  0.38430368  0.83451803     0.05000
C1730       C  0.04436488  0.34944527  0.82968386    -0.03600
Br1731     Br  0.02979181  0.31266588  0.86028662    -0.03300
H1732       H  0.07769769  0.31518854  0.80027160     0.08900
H1733       H  0.03425333  0.43674672  0.81337821     0.06900
Br1734     Br  0.07929923  0.43857697  0.75191541    -0.03700
C1735       C  0.25790047  0.20885678  0.05966599    -0.10300
C1736       C  0.28966929  0.19010176  0.05983326     0.05900
C1737       C  0.31080988  0.19129803  0.09001143    -0.04100
C1738       C  0.30351751  0.21582484  0.11539204    -0.08500
C1739       C  0.27477375  0.23862642  0.11271380     0.05000
C1740       C  0.25024469  0.23310071  0.08583442    -0.03600
Br1741     Br  0.20680505  0.25797396  0.08214876    -0.03300
H1742       H  0.24029946  0.20693094  0.03760197     0.08900
H1743       H  0.32187813  0.21786750  0.13677147     0.06900
Br1744     Br  0.35241394  0.16394580  0.09817960    -0.03700
C1745       C  0.32201296  0.23988524  0.92595683    -0.10300
C1746       C  0.29783147  0.21571078  0.93847309     0.05900
C1747       C  0.26265017  0.21759323  0.92742434    -0.04100
C1748       C  0.25252168  0.24313157  0.90329031    -0.08500
C1749       C  0.27720611  0.26668595  0.89010734     0.05000
C1750       C  0.31210882  0.26506408  0.90199288    -0.03600
Br1751     Br  0.34831347  0.29513352  0.88488875    -0.03300
H1752       H  0.34887407  0.23939998  0.93506130     0.08900
H1753       H  0.22604928  0.24309829  0.89312828     0.06900
Br1754     Br  0.22845123  0.18418850  0.94228717    -0.03700
C1755       C  0.12554431  0.32520770  0.11013977    -0.10300
C1756       C  0.16131236  0.33091071  0.11757971     0.05900
C1757       C  0.18063312  0.35084408  0.09290044    -0.04100
C1758       C  0.16464547  0.36439301  0.06277721    -0.08500
C1759       C  0.12900995  0.35967598  0.05590275     0.05000
C1760       C  0.10941952  0.33961655  0.07992004    -0.03600
Br1761     Br  0.06058392  0.33145111  0.07231610    -0.03300
H1762       H  0.10980451  0.31061917  0.12837475     0.08900
H1763       H  0.18026723  0.37935111  0.04464571     0.06900
Br1764     Br  0.22965877  0.36063781  0.09769114    -0.03700
C1765       C  0.13687307  0.38854250  0.90112503    -0.10300
C1766       C  0.12517479  0.36470506  0.92622446     0.05900
C1767       C  0.12674277  0.32865766  0.91738627    -0.04100
C1768       C  0.14041036  0.31751595  0.88475854    -0.08500
C1769       C  0.15365234  0.34150622  0.86022933     0.05000
C1770       C  0.15132731  0.37766291  0.86917831    -0.03600
Br1771     Br  0.16803714  0.41492158  0.84009994    -0.03300
H1772       H  0.13608794  0.41621544  0.90694751     0.08900
H1773       H  0.14162100  0.28984437  0.87905843     0.06900
Br1774     Br  0.10967583  0.29336689  0.94837081    -0.03700
C1775       C  0.56959925  0.38502907  0.16597953    -0.10300
C1776       C  0.54923741  0.40495217  0.18862407     0.05900
C1777       C  0.55815665  0.40629381  0.22424327    -0.04100
C1778       C  0.58739127  0.38767700  0.23655325    -0.08500
C1779       C  0.60728705  0.36656044  0.21396164     0.05000
C1780       C  0.59780121  0.36548507  0.17803811    -0.03600
Br1781     Br  0.62038249  0.33764307  0.14270756    -0.03300
H1782       H  0.56239855  0.38325020  0.13868144     0.08900
H1783       H  0.59405892  0.38911778  0.26395975     0.06900
Br1784     Br  0.53150580  0.43356172  0.25671596    -0.03700
C1785       C  0.39152573  0.40729668  0.16256870    -0.10300
C1786       C  0.42145265  0.39900057  0.18219870     0.05900
C1787       C  0.41876846  0.37221396  0.20755033    -0.04100
C1788       C  0.38772181  0.35303768  0.21047226    -0.08500
C1789       C  0.35895330  0.35946653  0.18854731     0.05000
C1790       C  0.36098091  0.38776742  0.16479762    -0.03600
Br1791     Br  0.32468594  0.40140956  0.13260344    -0.03300
H1792       H  0.39218000  0.42831493  0.14369211     0.08900
H1793       H  0.38661086  0.33208073  0.22938604     0.06900
Br1794     Br  0.45592983  0.35889436  0.23859160    -0.03700
C1795       C  0.51628152  0.25293208  0.30728797    -0.10300
C1796       C  0.51644041  0.22465286  0.33081920     0.05900
C1797       C  0.54872773  0.20803980  0.33826486    -0.04100
C1798       C  0.57880048  0.21864662  0.32126567    -0.08500
C1799       C  0.57853495  0.24554730  0.29639735     0.05000
C1800       C  0.54681250  0.26345584  0.29003952    -0.03600
Br1801     Br  0.54277293  0.30210589  0.25839731    -0.03300
H1802       H  0.49206322  0.26649353  0.30141008     0.08900
H1803       H  0.60266814  0.20451414  0.32714041     0.06900
Br1804     Br  0.55558961  0.16991684  0.37029385    -0.03700
C1805       C  0.33118838  0.23561969  0.31295651    -0.10300
C1806       C  0.33208321  0.27217948  0.30780252     0.05900
C1807       C  0.36196962  0.29030907  0.31915243    -0.04100
C1808       C  0.38988329  0.27176643  0.33469508    -0.08500
C1809       C  0.38874980  0.23505672  0.33949043     0.05000
C1810       C  0.35836979  0.21726332  0.32894032    -0.03600
Br1811     Br  0.35329782  0.16736753  0.33133355    -0.03300
H1812       H  0.30967078  0.22035711  0.30285534     0.08900
H1813       H  0.41325407  0.28604386  0.34188399     0.06900
Br1814     Br  0.36791273  0.33915111  0.31006853    -0.03700
C1815       C  0.30841206  0.43960500  0.22272575    -0.10300
C1816       C  0.27669279  0.42792774  0.20795859     0.05900
C1817       C  0.26074100  0.44956387  0.18223520    -0.04100
C1818       C  0.27638943  0.48108764  0.17200892    -0.08500
C1819       C  0.30811442  0.49232687  0.18632186     0.05000
C1820       C  0.32424821  0.47115250  0.21182917    -0.03600
Br1821     Br  0.36861509  0.48370831  0.23131142    -0.03300
H1822       H  0.32156552  0.42361317  0.24198769     0.08900
H1823       H  0.26369616  0.49695864  0.15235469     0.06900
Br1824     Br  0.21716924  0.43873167  0.15959824    -0.03700
C1825       C  0.29831030  0.64714926  0.16817321    -0.10300
C1826       C  0.31345178  0.62213618  0.19008787     0.05900
C1827       C  0.31507072  0.63015630  0.22619487    -0.04100
C1828       C  0.30191687  0.66241003  0.23928613    -0.08500
C1829       C  0.28518574  0.68692184  0.21740818     0.05000
C1830       C  0.28374360  0.67838772  0.18108851    -0.03600
Br1831     Br  0.26156588  0.70685619  0.14611489    -0.03300
H1832       H  0.29644608  0.64168377  0.14051112     0.08900
H1833       H  0.30403538  0.66785972  0.26690011     0.06900
Br1834     Br  0.33569988  0.59820797  0.25870695    -0.03700
C1835       C  0.13082851  0.46496306  0.28160210    -0.10300
C1836       C  0.16429990  0.45042212  0.28138833     0.05900
C1837       C  0.18948123  0.46118636  0.30587294    -0.04100
C1838       C  0.17989490  0.48483300  0.33188612    -0.08500
C1839       C  0.14550450  0.49744503  0.33343035     0.05000
C1840       C  0.12130859  0.48861539  0.30716814    -0.03600
Br1841     Br  0.07529974  0.50878290  0.30382553    -0.03300
H1842       H  0.11147491  0.45654890  0.26268972     0.08900
H1843       H  0.19900536  0.49302200  0.35109613     0.06900
Br1844     Br  0.23630393  0.44311320  0.30578947    -0.03700
C1845       C  0.18056896  0.62245597  0.34295479    -0.10300
C1846       C  0.14573229  0.61836380  0.35406924     0.05900
C1847       C  0.12027460  0.64294723  0.34354693    -0.04100
C1848       C  0.12945535  0.66874627  0.32018241    -0.08500
C1849       C  0.16380768  0.67192193  0.30765401     0.05000
C1850       C  0.18983080  0.64911195  0.32002007    -0.03600
Br1851     Br  0.23813605  0.65325011  0.30750268    -0.03300
H1852       H  0.20040544  0.60393724  0.35105800     0.08900
H1853       H  0.10907676  0.68642510  0.31146085     0.06900
Br1854     Br  0.07169417  0.64248810  0.35681873    -0.03700
C1855       C  0.14255102  0.39329338  0.39896524    -0.10300
C1856       C  0.16641515  0.40092153  0.42553689     0.05900
C1857       C  0.20256959  0.39695923  0.41768228    -0.04100
C1858       C  0.21356522  0.38414848  0.38466301    -0.08500
C1859       C  0.18924407  0.37436207  0.35877953     0.05000
C1860       C  0.15312545  0.37993586  0.36661828    -0.03600
Br1861     Br  0.11487126  0.36954774  0.33596115    -0.03300
H1862       H  0.11479767  0.39620801  0.40389923     0.08900
H1863       H  0.24123817  0.38058786  0.37977435     0.06900
Br1864     Br  0.23826761  0.40937393  0.45053024    -0.03700
C1865       C  0.16650996  0.34696911  0.60273926    -0.10300
C1866       C  0.19723029  0.36037029  0.61837212     0.05900
C1867       C  0.21417651  0.38823647  0.60091676    -0.04100
C1868       C  0.20028049  0.40163971  0.56925711    -0.08500
C1869       C  0.16900099  0.38846259  0.55471201     0.05000
C1870       C  0.15251640  0.36060274  0.57183986    -0.03600
Br1871     Br  0.11089555  0.33939715  0.55348144    -0.03300
H1872       H  0.15264593  0.32558894  0.61482714     0.08900
H1873       H  0.21337231  0.42320065  0.55654990     0.06900
Br1874     Br  0.25514891  0.41007566  0.61963509    -0.03700
C1875       C  0.28507673  0.27464545  0.40264140    -0.10300
C1876       C  0.26724108  0.24836613  0.38446410     0.05900
C1877       C  0.27411405  0.21295855  0.39233611    -0.04100
C1878       C  0.29892870  0.20443119  0.41714096    -0.08500
C1879       C  0.31717553  0.23035589  0.43520536     0.05000
C1880       C  0.30996372  0.26591175  0.42805290    -0.03600
Br1881     Br  0.33457457  0.30341083  0.45045211    -0.03300
H1882       H  0.28083449  0.30185933  0.39597621     0.08900
H1883       H  0.30312864  0.17703355  0.42300509     0.06900
Br1884     Br  0.25074065  0.17430482  0.37026282    -0.03700
C1885       C  0.31173165  0.26426119  0.55773883    -0.10300
C1886       C  0.33365733  0.23468612  0.55862183     0.05900
C1887       C  0.33372191  0.21351591  0.58878366    -0.04100
C1888       C  0.30911517  0.21955159  0.61439249    -0.08500
C1889       C  0.28458336  0.24680027  0.61186954     0.05000
C1890       C  0.28678870  0.27007346  0.58356173    -0.03600
Br1891     Br  0.25568721  0.30868071  0.57647319    -0.03300
H1892       H  0.31177422  0.28144062  0.53531869     0.08900
H1893       H  0.30855727  0.20145383  0.63601802     0.06900
Br1894     Br  0.36342497  0.17359719  0.59699134    -0.03700
loop_ 
_geom_bond_atom_site_label_1 
_geom_bond_atom_site_label_2 
_geom_bond_distance 
_geom_bond_site_symmetry_2 
_ccdc_geom_bond_type 
C1            N2   1.354       .  A
C1            N6   1.347       .  A
C1         C1886   1.473       .  S
N2            C3   1.352       .  A
C3            N4   1.363       .  A
C3         C1879   1.469       .  S
N4            C5   1.354       .  A
C5            N6   1.345       .  A
C5          C863   1.456       .  S
C7            N8   1.367       .  A
C7           N12   1.374       .  A
C7         C1856   1.514       .  S
N8            C9   1.365       .  A
C9           N10   1.369       .  A
C9         C1869   1.502       .  S
N10          C11   1.364       .  A
C11          N12   1.368       .  A
C11         C761   1.512       .  S
C13          N14   1.355       .  A
C13          N18   1.348       .  A
C13        C1839   1.447       .  S
N14          C15   1.352       .  A
C15          N16   1.353       .  A
C15         C784   1.452       .  S
N16          C17   1.353       .  A
C17          N18   1.350       .  A
C17        C1846   1.464       .  S
C19          N20   1.365       .  A
C19          N24   1.367       .  A
C19        C1819   1.497       .  S
N20          C21   1.365       .  A
C21          N22   1.371       .  A
C21         C818   1.507       .  S
N22          C23   1.374       .  A
C23          N24   1.367       .  A
C23        C1826   1.516       .  S
C25          N26   1.348       .  A
C25          N30   1.355       .  A
C25        C1796   1.485       .  S
N26          C27   1.349       .  A
C27          N28   1.368       .  A
C27         C886   1.486       .  S
N28          C29   1.376       .  A
C29          N30   1.360       .  A
C29        C1809   1.496       .  S
C31          N32   1.355       .  A
C31          N36   1.357       .  A
C31        C1786   1.492       .  S
N32          C33   1.359       .  A
C33          N34   1.365       .  A
C33        C1776   1.471       .  S
N34          C35   1.358       .  A
C35          N36   1.353       .  A
C35         C806   1.472       .  S
C37          N38   1.367       .  A
C37          N42   1.372       .  A
C37        C1766   1.518       .  S
N38          C39   1.368   1_556  A
C39          N40   1.371       .  A
C39        C1759   1.508       .  S
N40          C41   1.371   1_554  A
C41          N42   1.369       .  A
C41         C528   1.512       .  S
C43          N44   1.352       .  A
C43          N48   1.363       .  A
C43        C1746   1.463       .  S
N44          C45   1.353   1_556  A
C45          N46   1.349       .  A
C45        C1736   1.473       .  S
N46          C47   1.348   1_554  A
C47          N48   1.356       .  A
C47         C561   1.458       .  S
O49          C76   1.262       .  A
O49         Mn75   2.061       .  S
C50        C1889   1.472       .  S
C50          O83   1.264       .  A
C50          O80   1.262       .  A
O51         Mn58   2.179       .  S
O51         Mn69   2.091       .  S
O51         Mn73   2.179       .  S
O51         Mn75   2.118       .  S
O52          C62   1.271       .  A
O52         Mn86   2.085       .  S
O53          C76   1.261       .  A
O53         Mn69   2.043       .  S
O54          C81   1.267       .  A
O54         Mn73   2.185       .  S
O55         Mn86   1.961       .  S
O55         Mn75   1.972       .  S
O55          C71   1.222       .  S
C56        C1696   1.501       .  S
C56          O59   1.273       .  A
C56          O82   1.227       .  A
O57         Mn77   2.077       .  S
O57         Mn58   2.183       .  S
O57         Mn91   2.103       .  S
O57         Mn73   2.171       .  S
Mn58         O87   2.196       .  S
Mn58         O63   2.174       .  S
Mn58         O90   2.182       .  S
Mn58         O64   2.178       .  S
O59         Mn73   2.192       .  S
O60          C62   1.269       .  A
O60         Mn67   2.081       .  S
C61        C1676   1.525       .  S
C61          O87   1.267       .  A
C61          O74   1.209       .  S
C62        C1706   1.466       .  S
O63          C88   1.267       .  A
O64         Mn67   2.096       .  S
O64         Mn86   2.105       .  S
O64         Mn73   2.170       .  S
O65         Mn69   1.935       .  S
O65         Mn91   1.926       .  S
O65          C88   1.213       .  S
C66        C1749   1.460       .  S
C66          O92   1.264       .  A
C66          O68   1.270       .  A
Mn67         O80   2.052       .  S
Mn67         O82   2.011       .  S
Mn67         O74   1.960       .  S
O68         Mn91   2.092       .  S
Mn69         O85   2.065       .  S
Mn69         O79   1.956       .  S
O70          C72   1.275       .  A
O70         Mn75   2.106       .  S
C71        C1719   1.523       .  S
C71          O89   1.271       .  A
C72        C1666   1.482       .  S
C72          O85   1.265       .  A
Mn73         O89   2.177       .  S
O74         Mn77   1.978       .  S
Mn75         O93   1.928       .  S
C76        C1726   1.432       .  S
Mn77         O84   2.093       .  S
Mn77         O92   2.078       .  S
Mn77         O82   2.004       .  S
C78        C1689   1.466       .  S
C78          O84   1.273       .  A
C78          O94   1.259       .  A
O79         Mn91   1.945       .  S
O79          C81   1.213       .  S
C81        C1769   1.523       .  S
O83         Mn86   2.080       .  S
Mn86         O93   1.948       .  S
C88        C1656   1.507       .  S
O90          C95   1.267       .  A
Mn91         O94   2.048       .  S
O93          C95   1.216       .  S
C95        C1866   1.520       .  S
C96          N97   1.350       .  A
C96         N101   1.353       .  A
C96        C1646   1.453       .  S
N97          C98   1.353       .  A
C98          N99   1.361       .  A
C98        C1639   1.469       .  S
N99         C100   1.354       .  A
C100        N101   1.348       .  A
C100        C483   1.455       .  S
C102        N103   1.369       .  A
C102        N107   1.364       .  A
C102       C1629   1.504   1_545  S
N103        C104   1.366       .  A
C104        N105   1.371       .  A
C104        C573   1.517       .  S
N105        C106   1.375       .  A
C106        N107   1.366       .  A
C106       C1616   1.510       .  S
O108        C135   1.266       .  A
O108       Mn134   2.065       .  S
C109       C1849   1.464       .  S
C109        O142   1.270       .  A
C109        O139   1.265       .  A
O110       Mn117   2.187       .  S
O110       Mn128   2.106       .  S
O110       Mn132   2.172       .  S
O110       Mn134   2.085       .  S
O111        C121   1.263       .  A
O111       Mn145   2.046       .  S
O112        C135   1.275       .  A
O112       Mn128   2.095       .  S
O113        C140   1.268       .  A
O113       Mn132   2.171       .  S
O114       Mn145   1.996       .  S
O114       Mn134   1.997       .  S
O114        C130   1.233       .  A
C115       C1576   1.523       .  S
C115        O118   1.262       .  A
C115        O141   1.216       .  S
O116       Mn136   2.110       .  S
O116       Mn117   2.179       .  S
O116       Mn150   2.106       .  S
O116       Mn132   2.179       .  S
Mn117       O146   2.179       .  S
Mn117       O122   2.176       .  S
Mn117       O149   2.203       .  S
Mn117       O123   2.168       .  S
O118       Mn132   2.178       .  S
O119        C121   1.270       .  A
O119       Mn126   2.086       .  S
C120       C1559   1.508       .  S
C120        O146   1.272       .  A
C120        O133   1.211       .  S
C121       C1586   1.460       .  S
O122        C147   1.265       .  A
O123       Mn126   2.085       .  S
O123       Mn145   2.081       .  S
O123       Mn132   2.174       .  S
O124       Mn128   1.949       .  S
O124       Mn150   1.940       .  S
O124        C147   1.217       .  S
C125       C1649   1.438       .  S
C125        O151   1.264       .  A
C125        O127   1.264       .  A
Mn126       O139   2.063       .  S
Mn126       O141   1.955       .  S
Mn126       O133   1.934       .  S
O127       Mn150   2.064       .  S
Mn128       O144   2.084       .  S
Mn128       O138   1.955       .  S
O129        C131   1.256       .  A
O129       Mn134   2.029       .  S
C130       C1596   1.499       .  S
C130        O148   1.268       .  A
C131       C1546   1.447       .  S
C131        O144   1.266       .  A
Mn132       O148   2.179       .  S
O133       Mn136   1.945       .  S
Mn134       O152   1.954       .  S
C135       C1609   1.479       .  S
Mn136       O143   2.076       .  S
Mn136       O151   2.054       .  S
Mn136       O141   1.949       .  S
C137       C1569   1.481       .  S
C137        O143   1.268       .  A
C137        O153   1.274       .  A
O138       Mn150   1.969       .  S
O138        C140   1.220       .  S
C140       C1626   1.523       .  S
O142       Mn145   2.081       .  S
Mn145       O152   1.955       .  S
C147       C1539   1.513       .  S
O149        C154   1.268       .  A
Mn150       O153   2.091       .  S
O152        C154   1.208       .  S
C154       C1829   1.528       .  S
C155        N156   1.355       .  A
C155        N160   1.353       .  A
C155       C1526   1.478       .  S
N156        C157   1.360   1_655  A
C157        N158   1.375       .  A
C157       C1516   1.486       .  S
N158        C159   1.369   1_455  A
C159        N160   1.350       .  A
C159        C506   1.485       .  S
C161        N162   1.368       .  A
C161        N166   1.358       .  A
C161       C1509   1.472       .  S
N162        C163   1.361       .  A
C163        N164   1.345       .  A
C163        C516   1.463       .  S
N164        C165   1.344       .  A
C165        N166   1.351       .  A
C165       C1496   1.463   1_655  S
O167        C194   1.268       .  A
O167       Mn193   2.080       .  S
C168       C1799   1.484       .  S
C168        O201   1.269       .  A
C168        O198   1.270       .  A
O169       Mn176   2.176       .  S
O169       Mn187   2.097       .  S
O169       Mn191   2.169       .  S
O169       Mn193   2.093       .  S
O170        C180   1.271       .  A
O170       Mn204   2.092       .  S
O171        C194   1.268       .  A
O171       Mn187   2.081       .  S
O172        C199   1.255       .  A
O172       Mn191   2.126       .  S
O173       Mn204   1.953       .  S
O173       Mn193   1.946       .  S
O173        C189   1.209       .  S
C174       C1486   1.492       .  S
C174        O177   1.255       .  A
C174        O200   1.214       .  S
O175       Mn195   2.099       .  S
O175       Mn176   2.175       .  S
O175       Mn209   2.089       .  S
O175       Mn191   2.172       .  S
Mn176       O205   2.140       .  S
Mn176       O181   2.126       .  S
Mn176       O208   2.141       .  S
Mn176       O182   2.163       .  S
O177       Mn191   2.129       .  S
O178        C180   1.269       .  A
O178       Mn185   2.071       .  S
C179       C1779   1.489       .  S
C179        O205   1.259       .  A
C179        O192   1.209       .  S
C180       C1456   1.486       .  S
O181        C206   1.256       .  A
O182       Mn185   2.099       .  S
O182       Mn204   2.090       .  S
O182       Mn191   2.163       .  S
O183       Mn187   1.998       .  S
O183       Mn209   2.008       .  S
O183        C206   1.233       .  A
C184       C1476   1.472       .  S
C184        O210   1.270       .  A
C184        O186   1.265       .  A
Mn185       O198   2.090       .  S
Mn185       O200   1.939       .  S
Mn185       O192   1.949       .  S
O186       Mn209   2.070       .  S
Mn187       O203   2.081       .  S
Mn187       O197   1.968       .  S
O188        C190   1.274       .  A
O188       Mn193   2.103       .  S
C189       C1466   1.488       .  S
C189        O207   1.257       .  A
C190       C1436   1.493       .  S
C190        O203   1.267       .  A
Mn191       O207   2.133       .  S
O192       Mn195   1.942       .  S
Mn193       O211   1.948       .  S
C194       C1529   1.464       .  S
Mn195       O202   2.101       .  S
Mn195       O210   2.098       .  S
Mn195       O200   1.957       .  S
C196       C1416   1.465       .  S
C196        O202   1.271       .  A
C196        O212   1.266       .  A
O197       Mn209   1.955       .  S
O197        C199   1.213       .  S
C199       C1506   1.482       .  S
O201       Mn204   2.067       .  S
Mn204       O211   1.939       .  S
C206       C1429   1.469       .  S
O208        C213   1.256       .  A
Mn209       O212   2.076       .  S
O211        C213   1.211       .  S
C213       C1446   1.491       .  S
C214        N215   1.353   1_556  A
C214        N219   1.351       .  A
C214       C1406   1.457       .  S
N215        C216   1.355       .  A
C216        N217   1.366       .  A
C216       C1489   1.472       .  S
N217        C218   1.363       .  A
C218        N219   1.351   1_554  A
C218        C562   1.471       .  S
C220        N221   1.350       .  A
C220        N225   1.352   1_554  A
C220       C1479   1.480       .  S
N221        C222   1.352   1_554  A
C222        N223   1.373       .  A
C222        C539   1.494       .  S
N223        C224   1.379       .  A
C224        N225   1.358       .  A
C224       C1396   1.484       .  S
C226        N227   1.372       .  A
C226        N231   1.370       .  A
C226       C1386   1.512       .  S
N227        C228   1.369       .  A
C228        N229   1.365   1_655  A
C228        C507   1.509       .  S
N229        C230   1.369       .  A
C230        N231   1.370   1_455  A
C230       C1716   1.517       .  S
C232        N233   1.354       .  A
C232        N237   1.346   1_455  A
C232       C1729   1.443       .  S
N233        C234   1.351   1_455  A
C234        N235   1.350       .  A
C234        C551   1.447       .  S
N235        C236   1.351       .  A
C236        N237   1.348       .  A
C236       C1376   1.466       .  S
O238        C265   1.263       .  A
O238       Mn264   2.034       .  S
C239       C1316   1.440       .  S
C239        O272   1.264       .  A
C239        O269   1.266       .  A
O240       Mn247   2.180       .  S
O240       Mn258   2.105       .  S
O240       Mn262   2.176       .  S
O240       Mn264   2.089       .  S
O241        C251   1.268       .  A
O241       Mn275   2.075       .  S
O242        C265   1.267       .  A
O242       Mn258   2.073       .  S
O243        C270   1.265       .  A
O243       Mn262   2.180       .  S
O244       Mn275   1.941       .  S
O244       Mn264   1.933       .  S
O244        C260   1.212       .  S
C245       C1366   1.515       .  S
C245        O248   1.265       .  A
C245        O271   1.216       .  S
O246       Mn266   2.105       .  S
O246       Mn247   2.177       .  S
O246       Mn280   2.102       .  S
O246       Mn262   2.180       .  S
Mn247       O276   2.164       .  S
Mn247       O252   2.190       .  S
Mn247       O279   2.190       .  S
Mn247       O253   2.187       .  S
O248       Mn262   2.177       .  S
O249        C251   1.272       .  A
O249       Mn256   2.097       .  S
C250       C1326   1.511       .  S
C250        O276   1.267       .  A
C250        O263   1.220       .  S
C251       C1409   1.470       .  S
O252        C277   1.268       .  A
O253       Mn256   2.120       .  S
O253       Mn275   2.105       .  S
O253       Mn262   2.186       .  S
O254       Mn258   1.994       .  S
O254       Mn280   1.991       .  S
O254        C277   1.231       .  A
C255       C1359   1.450       .  S
C255        O281   1.270       .  A
C255        O257   1.255       .  A
Mn256       O269   2.074       .  S
Mn256       O271   1.943       .  S
Mn256       O263   1.960       .  S
O257       Mn280   2.014       .  S
Mn258       O274   2.062       .  S
Mn258       O268   1.963       .  S
O259        C261   1.267       .  A
O259       Mn264   2.090       .  S
C260       C1399   1.499       .  S
C260        O278   1.266       .  A
C261       C1296   1.455       .  S
C261        O274   1.264       .  A
Mn262       O278   2.173       .  S
O263       Mn266   1.951       .  S
Mn264       O282   1.935       .  S
C265       C1379   1.461       .  S
Mn266       O273   2.074       .  S
Mn266       O281   2.091       .  S
Mn266       O271   1.953       .  S
C267       C1339   1.463       .  S
C267        O273   1.269       .  A
C267        O283   1.270       .  A
O268       Mn280   1.967       .  S
O268        C270   1.218       .  S
C270       C1389   1.526       .  S
O272       Mn275   2.046       .  S
Mn275       O282   1.953       .  S
C277       C1346   1.502       .  S
O279        C284   1.266       .  A
Mn280       O283   2.086       .  S
O282        C284   1.213       .  S
C284       C1306   1.523       .  S
C285        N286   1.352       .  A
C285        N290   1.356   1_556  A
C285       C1286   1.489       .  S
N286        C287   1.351   1_556  A
C287        N288   1.366       .  A
C287        C527   1.487       .  S
N288        C289   1.374       .  A
C289        N290   1.361       .  A
C289       C1599   1.484       .  S
C291        N292   1.355   1_554  A
C291        N296   1.352       .  A
C291       C1606   1.475       .  S
N292        C293   1.356       .  A
C293        N294   1.361       .  A
C293       C1276   1.461       .  S
N294        C295   1.352       .  A
C295        N296   1.350   1_556  A
C295        C596   1.463       .  S
C297        N298   1.364       .  A
C297        N302   1.357       .  A
C297       C1269   1.468   1_545  S
N298        C299   1.357       .  A
C299        N300   1.351       .  A
C299        C482   1.468       .  S
N300        C301   1.352       .  A
C301        N302   1.355       .  A
C301       C1709   1.470       .  S
C303        N304   1.353       .  A
C303        N308   1.354       .  A
C303       C1256   1.482       .  S
N304        C305   1.357       .  A
C305        N306   1.377       .  A
C305       C1699   1.486       .  S
N306        C307   1.367       .  A
C307        N308   1.351       .  A
C307        C584   1.491       .  S
O309        C336   1.268       .  A
O309       Mn335   2.075       .  S
C310       C1289   1.493       .  S
C310        O343   1.269       .  A
C310        O340   1.270       .  A
O311       Mn318   2.164       .  S
O311       Mn329   2.105       .  S
O311       Mn333   2.165       .  S
O311       Mn335   2.089       .  S
O312        C322   1.263       .  A
O312       Mn346   2.056       .  S
O313        C336   1.269       .  A
O313       Mn329   2.091       .  S
O314        C341   1.255       .  A
O314       Mn333   2.118       .  S
O315       Mn346   1.962       .  S
O315       Mn335   1.978       .  S
O315        C331   1.217       .  S
C316       C1176   1.482       .  S
C316        O319   1.255       .  A
C316        O342   1.213       .  S
O317       Mn337   2.097       .  S
O317       Mn318   2.167       .  S
O317       Mn351   2.097       .  S
O317       Mn333   2.155       .  S
Mn318       O347   2.116       .  S
Mn318       O323   2.125       .  S
Mn318       O350   2.132       .  S
Mn318       O324   2.179       .  S
O319       Mn333   2.126       .  S
O320        C322   1.271       .  A
O320       Mn327   2.096       .  S
C321       C1236   1.482       .  S
C321        O347   1.252       .  A
C321        O334   1.214       .  S
C322       C1186   1.466       .  S
O323        C348   1.254       .  A
O324       Mn327   2.094       .  S
O324       Mn346   2.100       .  S
O324       Mn333   2.172       .  S
O325       Mn329   1.951       .  S
O325       Mn351   1.947       .  S
O325        C348   1.215       .  S
C326       C1226   1.485       .  S
C326        O352   1.265       .  A
C326        O328   1.276       .  A
Mn327       O340   2.080       .  S
Mn327       O342   1.952       .  S
Mn327       O334   1.941       .  S
O328       Mn351   2.106       .  S
Mn329       O345   2.100       .  S
Mn329       O339   1.953       .  S
O330        C332   1.272       .  A
O330       Mn335   2.078       .  S
C331       C1196   1.493       .  S
C331        O349   1.254       .  A
C332       C1259   1.491       .  S
C332        O345   1.271       .  A
Mn333       O349   2.120       .  S
O334       Mn337   1.947       .  S
Mn335       O353   2.000       .  S
C336       C1206   1.465       .  S
Mn337       O344   2.092       .  S
Mn337       O352   2.067       .  S
Mn337       O342   1.943       .  S
C338       C1246   1.488       .  S
C338        O344   1.269       .  A
C338        O354   1.271       .  A
O339       Mn351   1.966       .  S
O339        C341   1.214       .  S
C341       C1219   1.483       .  S
O343       Mn346   2.097       .  S
Mn346       O353   1.996       .  S
C348       C1266   1.488       .  S
O350        C355   1.254       .  A
Mn351       O354   2.076       .  S
O353        C355   1.234       .  A
C355       C1279   1.477       .  S
C356        N357   1.349       .  A
C356        N361   1.350       .  A
C356       C1166   1.468       .  S
N357        C358   1.351   1_655  A
C358        N359   1.354       .  A
C358       C1589   1.462       .  S
N359        C360   1.351   1_455  A
C360        N361   1.345       .  A
C360        C517   1.447       .  S
C362        N363   1.369       .  A
C362        N367   1.370       .  A
C362       C1156   1.511       .  S
N363        C364   1.369   1_655  A
C364        N365   1.371       .  A
C364       C1579   1.510       .  S
N365        C366   1.367   1_455  A
C366        N367   1.366       .  A
C366        C471   1.508       .  S
C368        N369   1.350       .  A
C368        N373   1.356       .  A
C368       C1149   1.474       .  S
N369        C370   1.347       .  A
C370        N371   1.360       .  A
C370        C494   1.469       .  S
N371        C372   1.369       .  A
C372        N373   1.361       .  A
C372       C1469   1.474       .  S
C374        N375   1.357       .  A
C374        N379   1.376       .  A
C374       C1139   1.480   1_545  S
N375        C376   1.352       .  A
C376        N377   1.348       .  A
C376       C1459   1.484       .  S
N377        C378   1.351       .  A
C378        N379   1.372       .  A
C378        C572   1.486       .  S
O380        C407   1.265       .  A
O380       Mn406   2.059       .  S
C381       C1169   1.468       .  S
C381        O414   1.264       .  A
C381        O411   1.266       .  A
O382       Mn389   2.186       .  S
O382       Mn400   2.097       .  S
O382       Mn404   2.172       .  S
O382       Mn406   2.085       .  S
O383        C393   1.266       .  A
O383       Mn417   2.076       .  S
O384        C407   1.271       .  A
O384       Mn400   2.091       .  S
O385        C412   1.266       .  A
O385       Mn404   2.179       .  S
O386       Mn417   2.003       .  S
O386       Mn406   2.002       .  S
O386        C402   1.236       .  A
C387       C1106   1.517       .  S
C387        O390   1.268       .  A
C387        O413   1.216       .  S
O388       Mn408   2.091       .  S
O388       Mn389   2.171       .  S
O388       Mn422   2.084       .  S
O388       Mn404   2.164       .  S
Mn389       O418   2.193       .  S
Mn389       O394   2.178       .  S
Mn389       O421   2.208       .  S
Mn389       O395   2.169       .  S
O390       Mn404   2.176       .  S
O391        C393   1.272       .  A
O391       Mn398   2.092       .  S
C392       C1159   1.525       .  S
C392        O418   1.274       .  A
C392        O405   1.217       .  S
C393       C1056   1.484       .  S
O394        C419   1.266       .  A
O395       Mn398   2.095       .  S
O395       Mn417   2.098       .  S
O395       Mn404   2.170       .  S
O396       Mn400   1.920       .  S
O396       Mn422   1.925       .  S
O396        C419   1.210       .  S
C397       C1096   1.464       .  S
C397        O423   1.268       .  A
C397        O399   1.259       .  A
Mn398       O411   2.076       .  S
Mn398       O413   1.955       .  S
Mn398       O405   1.969       .  S
O399       Mn422   2.050       .  S
Mn400       O416   2.038       .  S
Mn400       O410   1.949       .  S
O401        C403   1.273       .  A
O401       Mn406   2.087       .  S
C402       C1069   1.493       .  S
C402        O420   1.265       .  A
C403       C1116   1.465       .  S
C403        O416   1.256       .  A
Mn404       O420   2.168       .  S
O405       Mn408   1.946       .  S
Mn406       O424   1.971       .  S
C407       C1076   1.452       .  S
Mn408       O415   2.096       .  S
Mn408       O423   2.091       .  S
Mn408       O413   1.964       .  S
C409       C1146   1.461       .  S
C409        O415   1.270       .  A
C409        O425   1.266       .  A
O410       Mn422   1.969       .  S
O410        C412   1.216       .  S
C412       C1089   1.519       .  S
O414       Mn417   2.046       .  S
Mn417       O424   1.974       .  S
C419       C1136   1.498       .  S
O421        C426   1.270       .  A
Mn422       O425   2.066       .  S
O424        C426   1.213       .  S
C426       C1126   1.537       .  S
C427        N428   1.360       .  A
C427        N432   1.345   1_554  A
C427       C1119   1.468       .  S
N428        C429   1.355   1_554  A
C429        N430   1.352       .  A
C429        C597   1.452       .  S
N430        C431   1.353       .  A
C431        N432   1.343       .  A
C431       C1046   1.444       .  S
C433        N434   1.369       .  A
C433        N438   1.365       .  A
C433       C1036   1.499       .  S
N434        C435   1.369   1_556  A
C435        N436   1.377       .  A
C435       C1129   1.524       .  S
N436        C437   1.373   1_554  A
C437        N438   1.361       .  A
C437        C538   1.513       .  S
C439        N440   1.354       .  A
C439        N444   1.351       .  A
C439       C1356   1.465       .  S
N440        C441   1.349       .  A
C441        N442   1.360       .  A
C441        C493   1.467       .  S
N442        C443   1.366       .  A
C443        N444   1.352       .  A
C443       C1026   1.470   1_545  S
C445        N446   1.367       .  A
C445        N450   1.369       .  A
C445       C1369   1.515       .  S
N446        C447   1.363       .  A
C447        N448   1.367       .  A
C447        C583   1.507       .  S
N448        C449   1.373       .  A
C449        N450   1.370       .  A
C449       C1019   1.512   1_545  S
C451        N452   1.354       .  A
C451        N456   1.352       .  A
C451       C1249   1.480   1_655  S
N452        C453   1.359       .  A
C453        N454   1.370       .  A
C453       C1006   1.481       .  S
N454        C455   1.364       .  A
C455        N456   1.349       .  A
C455        C472   1.477       .  S
C457        N458   1.358       .  A
C457        N462   1.352       .  A
C457        C996   1.474       .  S
N458        C459   1.354       .  A
C459        N460   1.357   1_655  A
C459        C552   1.473       .  S
N460        C461   1.363       .  A
C461        N462   1.355   1_455  A
C461       C1239   1.463       .  S
N463        N464   1.328       .  A
N463        N469   1.316       .  A
N463       Mn492   2.239   1_565  S
N464        C471   1.360       .  A
N465        N467   1.313       .  A
N465        N466   1.320       .  A
N465       Mn481   2.212   1_665  S
N466        C472   1.356       .  A
N467        N468   1.326       .  A
N467       Mn492   2.203   1_565  S
N468        C472   1.353       .  A
N469        N470   1.330   1_655  A
N469       Mn481   2.252   1_665  S
N470        C471   1.361   1_455  A
N473        N479   1.319       .  A
N473        N474   1.316       .  A
N473       Mn503   2.192       .  S
N474        C482   1.348       .  A
N475        N476   1.318       .  A
N475        N477   1.318       .  A
N475       Mn481   2.188       .  S
N476        C483   1.347       .  A
N477        N478   1.320       .  A
N477       Mn503   2.196       .  S
N478        C483   1.347       .  A
N479        N480   1.326       .  A
N479       Mn481   2.231       .  S
N480        C482   1.356       .  A
Mn481      Cl505   2.549   1_455  S
N484        N485   1.323       .  A
N484        N490   1.320       .  A
N484       Mn492   2.198       .  S
N485        C493   1.347       .  A
N486        N488   1.317       .  A
N486        N487   1.328       .  A
N486       Mn504   2.218       .  S
N487        C494   1.354       .  A
N488        N489   1.315       .  A
N488       Mn492   2.191       .  S
N489        C494   1.349       .  A
N490        N491   1.320       .  A
N490       Mn504   2.213       .  S
N491        C493   1.352       .  A
Mn492      Cl505   2.550       .  S
N495        N496   1.329   1_655  A
N495        N501   1.315       .  A
N495       Mn503   2.210   1_655  S
N496        C506   1.353   1_455  A
N497        N498   1.330       .  A
N497        N499   1.314       .  A
N497       Mn504   2.242       .  S
N498        C507   1.360       .  A
N499        N500   1.329   1_655  A
N499       Mn503   2.243   1_655  S
N500        C507   1.361   1_455  A
N501        N502   1.321       .  A
N501       Mn504   2.223       .  S
N502        C506   1.356       .  A
Mn503      Cl505   2.549   1_455  S
Mn504      Cl505   2.548       .  S
N508        N509   1.326       .  A
N508        N514   1.317       .  A
N508       Mn537   2.204       .  S
N509        C516   1.352       .  A
N510        N512   1.319       .  A
N510        N511   1.316       .  A
N510       Mn526   2.176   1_655  S
N511        C517   1.343       .  A
N512        N513   1.318       .  A
N512       Mn537   2.196       .  S
N513        C517   1.350       .  A
N514        N515   1.314       .  A
N514       Mn526   2.196   1_655  S
N515        C516   1.350       .  A
N518        N524   1.313   1_556  A
N518        N519   1.319       .  A
N518       Mn548   2.208       .  S
N519        C527   1.354   1_556  A
N520        N521   1.329       .  A
N520        N522   1.315   1_554  A
N520       Mn526   2.231       .  S
N521        C528   1.359   1_554  A
N522        N523   1.331       .  A
N522       Mn548   2.261       .  S
N523        C528   1.363       .  A
N524        N525   1.330       .  A
N524       Mn526   2.228       .  S
N525        C527   1.358       .  A
Mn526      Cl550   2.548   1_454  S
N529        N530   1.331       .  A
N529        N535   1.315   1_554  A
N529       Mn537   2.238       .  S
N530        C538   1.360   1_554  A
N531        N533   1.314   1_556  A
N531        N532   1.334       .  A
N531       Mn549   2.230       .  S
N532        C539   1.359       .  A
N533        N534   1.319       .  A
N533       Mn537   2.215       .  S
N534        C539   1.354   1_554  A
N535        N536   1.329       .  A
N535       Mn549   2.257       .  S
N536        C538   1.363       .  A
Mn537      Cl550   2.552   1_554  S
N540        N541   1.316   1_655  A
N540        N546   1.318       .  A
N540       Mn548   2.172   1_655  S
N541        C551   1.344   1_455  A
N542        N543   1.318       .  A
N542        N544   1.320       .  A
N542       Mn549   2.201       .  S
N543        C552   1.349       .  A
N544        N545   1.326   1_655  A
N544       Mn548   2.238   1_655  S
N545        C552   1.357   1_455  A
N546        N547   1.318       .  A
N546       Mn549   2.198       .  S
N547        C551   1.349       .  A
Mn548      Cl550   2.550   1_455  S
Mn549      Cl550   2.547       .  S
N553        N554   1.321       .  A
N553        N559   1.319   1_556  A
N553       Mn582   2.191       .  S
N554        C561   1.347       .  A
N555        N557   1.319   1_554  A
N555        N556   1.325       .  A
N555       Mn571   2.218       .  S
N556        C562   1.353       .  A
N557        N558   1.318       .  A
N557       Mn582   2.208       .  S
N558        C562   1.352   1_556  A
N559        N560   1.317       .  A
N559       Mn571   2.202       .  S
N560        C561   1.350   1_554  A
N563        N569   1.313       .  A
N563        N564   1.330       .  A
N563       Mn593   2.209       .  S
N564        C572   1.356       .  A
N565        N566   1.331       .  A
N565        N567   1.316       .  A
N565       Mn571   2.249       .  S
N566        C573   1.361       .  A
N567        N568   1.330       .  A
N567       Mn593   2.256       .  S
N568        C573   1.363       .  A
N569        N570   1.319       .  A
N569       Mn571   2.220       .  S
N570        C572   1.356       .  A
Mn571      Cl595   2.547   1_554  S
N574        N575   1.329       .  A
N574        N580   1.315       .  A
N574       Mn582   2.240       .  S
N575        C583   1.360       .  A
N576        N578   1.315       .  A
N576        N577   1.321       .  A
N576       Mn594   2.220       .  S
N577        C584   1.356       .  A
N578        N579   1.330       .  A
N578       Mn582   2.228       .  S
N579        C584   1.357       .  A
N580        N581   1.330       .  A
N580       Mn594   2.245       .  S
N581        C583   1.360       .  A
Mn582      Cl595   2.556       .  S
N585        N586   1.314       .  A
N585        N591   1.318   1_554  A
N585       Mn593   2.185   1_565  S
N586        C596   1.346   1_554  A
N587        N588   1.318       .  A
N587        N589   1.319   1_556  A
N587       Mn594   2.187   1_565  S
N588        C597   1.347       .  A
N589        N590   1.319       .  A
N589       Mn593   2.200   1_565  S
N590        C597   1.348   1_554  A
N591        N592   1.326       .  A
N591       Mn594   2.224   1_565  S
N592        C596   1.356       .  A
Mn593      Cl595   2.553   1_554  S
Mn594      Cl595   2.552       .  S
O598        C625   1.270       .  A
O598       Mn624   2.093       .  S
C599       C1049   1.439       .  S
C599        O632   1.264       .  A
C599        O629   1.263       .  A
O600       Mn607   2.177       .  S
O600       Mn618   2.104       .  S
O600       Mn622   2.182       .  S
O600       Mn624   2.098       .  S
O601        C611   1.268       .  A
O601       Mn635   2.081       .  S
O602        C625   1.256       .  A
O602       Mn618   2.023       .  S
O603        C630   1.265       .  A
O603       Mn622   2.177       .  S
O604       Mn635   1.931       .  S
O604       Mn624   1.949       .  S
O604        C620   1.215       .  S
C605        C956   1.507       .  S
C605        O608   1.266       .  A
C605        O631   1.212       .  S
O606       Mn626   2.093       .  S
O606       Mn607   2.173       .  S
O606       Mn640   2.095       .  S
O606       Mn622   2.180       .  S
Mn607       O636   2.184       .  S
Mn607       O612   2.169       .  S
Mn607       O639   2.159       .  S
Mn607       O613   2.176       .  S
O608       Mn622   2.174       .  S
O609        C611   1.272       .  A
O609       Mn616   2.092       .  S
C610       C1016   1.521       .  S
C610        O636   1.265       .  A
C610        O623   1.211       .  S
C611        C966   1.483       .  S
O612        C637   1.265       .  A
O613       Mn616   2.094       .  S
O613       Mn635   2.111       .  S
O613       Mn622   2.177       .  S
O614       Mn618   1.994       .  S
O614       Mn640   1.998       .  S
O614        C637   1.233       .  A
C615        C989   1.461       .  S
C615        O641   1.261       .  A
C615        O617   1.271       .  A
Mn616       O629   2.056       .  S
Mn616       O631   1.942       .  S
Mn616       O623   1.959       .  S
O617       Mn640   2.079       .  S
Mn618       O634   2.089       .  S
Mn618       O628   1.963       .  S
O619        C621   1.268       .  A
O619       Mn624   2.068       .  S
C620        C936   1.520       .  S
C620        O638   1.266       .  A
C621        C999   1.465       .  S
C621        O634   1.270       .  A
Mn622       O638   2.182       .  S
O623       Mn626   1.950       .  S
Mn624       O642   1.957       .  S
C625        C949   1.453       .  S
Mn626       O633   2.107       .  S
Mn626       O641   2.048       .  S
Mn626       O631   1.933       .  S
C627       C1029   1.466       .  S
C627        O633   1.274       .  A
C627        O643   1.265       .  A
O628       Mn640   1.972       .  S
O628        C630   1.218       .  S
C630        C976   1.523       .  S
O632       Mn635   2.069       .  S
Mn635       O642   1.956       .  S
C637       C1009   1.492       .  S
O639        C644   1.265       .  A
Mn640       O643   2.064       .  S
O642        C644   1.221       .  S
C644       C1039   1.513       .  S
C645        N646   1.354       .  A
C645        N650   1.367       .  A
C645       C1216   1.474       .  S
N646        C647   1.350       .  A
C647        N648   1.355       .  A
C647       C1566   1.468       .  S
N648        C649   1.352       .  A
C649        N650   1.362       .  A
C649        C862   1.474       .  S
C651        N652   1.355       .  A
C651        N656   1.357       .  A
C651       C1229   1.493       .  S
N652        C653   1.360       .  A
C653        N654   1.374       .  A
C653       C1556   1.487       .  S
N654        C655   1.367       .  A
C655        N656   1.352       .  A
C655        C796   1.487       .  S
C657        N658   1.354       .  A
C657        N662   1.356       .  A
C657       C1439   1.493       .  S
N658        C659   1.361       .  A
C659        N660   1.376       .  A
C659       C1349   1.496       .  S
N660        C661   1.369       .  A
C661        N662   1.352       .  A
C661        C762   1.489       .  S
C663        N664   1.354       .  A
C663        N668   1.354       .  A
C663       C1336   1.472       .  S
N664        C665   1.358       .  A
C665        N666   1.368       .  A
C665       C1449   1.474       .  S
N666        C667   1.362       .  A
C667        N668   1.351       .  A
C667        C874   1.474       .  S
C669        N670   1.351       .  A
C669        N674   1.352       .  A
C669       C1099   1.468       .  S
N670        C671   1.349       .  A
C671        N672   1.359       .  A
C671        C986   1.472       .  S
N672        C673   1.351       .  A
C673        N674   1.347       .  A
C673        C873   1.452       .  S
C675        N676   1.367       .  A
C675        N680   1.375       .  A
C675        C979   1.514       .  S
N676        C677   1.366       .  A
C677        N678   1.370       .  A
C677       C1109   1.511       .  S
N678        C679   1.366       .  A
C679        N680   1.371       .  A
C679        C797   1.514       .  S
C681        N682   1.350       .  A
C681        N686   1.360       .  A
C681       C1686   1.466       .  S
N682        C683   1.347       .  A
C683        N684   1.349       .  A
C683       C1319   1.450       .  S
N684        C685   1.348       .  A
C685        N686   1.353       .  A
C685        C807   1.448       .  S
C687        N688   1.361       .  A
C687        N692   1.368       .  A
C687       C1329   1.493       .  S
N688        C689   1.362       .  A
C689        N690   1.374       .  A
C689       C1679   1.508       .  S
N690        C691   1.372       .  A
C691        N692   1.367       .  A
C691        C851   1.511       .  S
C693        N694   1.364       .  A
C693        N698   1.368       .  A
C693       C1536   1.505       .  S
N694        C695   1.365       .  A
C695        N696   1.373       .  A
C695       C1086   1.503       .  S
N696        C697   1.369       .  A
C697        N698   1.363       .  A
C697        C887   1.510       .  S
C699        N700   1.350       .  A
C699        N704   1.353       .  A
C699       C1549   1.462       .  S
N700        C701   1.352       .  A
C701        N702   1.361       .  A
C701       C1079   1.456       .  S
N702        C703   1.356       .  A
C703        N704   1.349       .  A
C703        C841   1.457       .  S
C705        N706   1.356       .  A
C705        N710   1.365       .  A
C705       C1426   1.454       .  S
N706        C707   1.350       .  A
C707        N708   1.349       .  A
C707       C1059   1.482       .  S
N708        C709   1.352       .  A
C709        N710   1.360       .  A
C709        C783   1.466       .  S
C711        N712   1.371       .  A
C711        N716   1.359       .  A
C711       C1066   1.483       .  S
N712        C713   1.364       .  A
C713        N714   1.351       .  A
C713        C829   1.478       .  S
N714        C715   1.353       .  A
C715        N716   1.354       .  A
C715       C1419   1.473       .  S
C717        N718   1.352       .  A
C717        N722   1.356       .  A
C717        C969   1.491       .  S
N718        C719   1.347       .  A
C719        N720   1.362       .  A
C719        C842   1.473       .  S
N720        C721   1.370       .  A
C721        N722   1.362       .  A
C721       C1199   1.482       .  S
C723        N724   1.355       .  A
C723        N728   1.351       .  A
C723       C1209   1.477       .  S
N724        C725   1.359       .  A
C725        N726   1.375       .  A
C725        C959   1.483       .  S
N726        C727   1.370       .  A
C727        N728   1.351       .  A
C727        C852   1.484       .  S
C729        N730   1.351       .  A
C729        N734   1.352       .  A
C729        C946   1.464       .  S
N730        C731   1.352       .  A
C731        N732   1.361       .  A
C731       C1299   1.463       .  S
N732        C733   1.355       .  A
C733        N734   1.348       .  A
C733        C772   1.457       .  S
C735        N736   1.371       .  A
C735        N740   1.364       .  A
C735        C939   1.505       .  S
N736        C737   1.370       .  A
C737        N738   1.372       .  A
C737        C828   1.514       .  S
N738        C739   1.372       .  A
C739        N740   1.365       .  A
C739       C1309   1.506       .  S
C741        N742   1.374       .  A
C741        N746   1.359       .  A
C741       C1659   1.483       .  S
N742        C743   1.368       .  A
C743        N744   1.349       .  A
C743        C817   1.481       .  S
N744        C745   1.352       .  A
C745        N746   1.355       .  A
C745       C1189   1.482       .  S
C747        N748   1.355       .  A
C747        N752   1.369       .  A
C747       C1179   1.468       .  S
N748        C749   1.351       .  A
C749        N750   1.350       .  A
C749       C1669   1.472       .  S
N750        C751   1.349       .  A
C751        N752   1.366       .  A
C751        C773   1.472       .  S
N753        N754   1.329       .  A
N753        N759   1.316       .  A
N753       Mn782   2.244   1_455  S
N754        C761   1.359       .  A
N755        N757   1.315       .  A
N755        N756   1.330       .  A
N755       Mn771   2.227       .  S
N756        C762   1.356       .  A
N757        N758   1.321       .  A
N757       Mn782   2.215       .  S
N758        C762   1.356       .  A
N759        N760   1.331       .  A
N759       Mn771   2.255   1_455  S
N760        C761   1.363       .  A
N763        N769   1.320       .  A
N763        N764   1.316       .  A
N763       Mn793   2.191       .  S
N764        C772   1.348       .  A
N765        N766   1.319       .  A
N765        N767   1.319       .  A
N765       Mn771   2.220   1_455  S
N766        C773   1.355       .  A
N767        N768   1.325       .  A
N767       Mn793   2.206   1_455  S
N768        C773   1.350       .  A
N769        N770   1.322       .  A
N769       Mn771   2.200       .  S
N770        C772   1.348       .  A
Mn771      Cl795   2.553       .  S
N774        N775   1.327       .  A
N774        N780   1.318       .  A
N774       Mn782   2.225       .  S
N775        C783   1.356       .  A
N776        N778   1.319       .  A
N776        N777   1.317       .  A
N776       Mn794   2.195   1_455  S
N777        C784   1.347       .  A
N778        N779   1.319       .  A
N778       Mn782   2.187   1_455  S
N779        C784   1.347       .  A
N780        N781   1.313       .  A
N780       Mn794   2.189       .  S
N781        C783   1.347       .  A
Mn782      Cl795   2.553       .  S
N785        N786   1.320       .  A
N785        N791   1.314       .  A
N785       Mn793   2.215   1_455  S
N786        C796   1.355       .  A
N787        N788   1.330       .  A
N787        N789   1.314       .  A
N787       Mn794   2.252       .  S
N788        C797   1.363       .  A
N789        N790   1.330       .  A
N789       Mn793   2.241       .  S
N790        C797   1.360       .  A
N791        N792   1.329       .  A
N791       Mn794   2.219   1_455  S
N792        C796   1.356       .  A
Mn793      Cl795   2.551       .  S
Mn794      Cl795   2.548       .  S
N798        N799   1.327       .  A
N798        N804   1.318       .  A
N798       Mn827   2.231       .  S
N799        C806   1.357       .  A
N800        N802   1.318       .  A
N800        N801   1.319       .  A
N800       Mn816   2.196   1_556  S
N801        C807   1.348       .  A
N802        N803   1.316       .  A
N802       Mn827   2.172   1_556  S
N803        C807   1.344       .  A
N804        N805   1.316       .  A
N804       Mn816   2.194       .  S
N805        C806   1.349       .  A
N808        N814   1.313       .  A
N808        N809   1.319       .  A
N808       Mn838   2.211   1_556  S
N809        C817   1.355       .  A
N810        N811   1.328       .  A
N810        N812   1.315       .  A
N810       Mn816   2.243       .  S
N811        C818   1.361       .  A
N812        N813   1.330       .  A
N812       Mn838   2.241       .  S
N813        C818   1.360       .  A
N814        N815   1.328       .  A
N814       Mn816   2.208   1_556  S
N815        C817   1.354       .  A
Mn816      Cl840   2.547       .  S
N819        N820   1.330       .  A
N819        N825   1.316       .  A
N819       Mn827   2.252   1_556  S
N820        C828   1.360       .  A
N821        N823   1.314       .  A
N821        N822   1.328       .  A
N821       Mn839   2.224   1_554  S
N822        C829   1.356       .  A
N823        N824   1.318       .  A
N823       Mn827   2.195       .  S
N824        C829   1.352       .  A
N825        N826   1.331       .  A
N825       Mn839   2.249       .  S
N826        C828   1.362       .  A
Mn827      Cl840   2.552       .  S
N830        N831   1.317       .  A
N830        N836   1.319       .  A
N830       Mn838   2.192       .  S
N831        C841   1.348       .  A
N832        N833   1.318       .  A
N832        N834   1.318       .  A
N832       Mn839   2.215       .  S
N833        C842   1.353       .  A
N834        N835   1.327       .  A
N834       Mn838   2.212   1_556  S
N835        C842   1.352       .  A
N836        N837   1.322       .  A
N836       Mn839   2.198   1_554  S
N837        C841   1.347       .  A
Mn838      Cl840   2.551       .  S
Mn839      Cl840   2.548   1_556  S
N843        N844   1.329       .  A
N843        N849   1.315       .  A
N843       Mn872   2.243       .  S
N844        C851   1.361       .  A
N845        N847   1.315       .  A
N845        N846   1.318   1_545  A
N845       Mn861   2.212       .  S
N846        C852   1.354       .  A
N847        N848   1.330   1_545  A
N847       Mn872   2.221       .  S
N848        C852   1.356       .  A
N849        N850   1.330       .  A
N849       Mn861   2.246       .  S
N850        C851   1.361       .  A
N853        N859   1.318       .  A
N853        N854   1.320   1_545  A
N853       Mn883   2.214       .  S
N854        C862   1.354       .  A
N855        N856   1.316       .  A
N855        N857   1.319       .  A
N855       Mn861   2.195       .  S
N856        C863   1.349       .  A
N857        N858   1.321       .  A
N857       Mn883   2.194       .  S
N858        C863   1.346       .  A
N859        N860   1.325   1_545  A
N859       Mn861   2.217       .  S
N860        C862   1.352       .  A
Mn861      Cl885   2.546       .  S
N864        N865   1.319   1_545  A
N864        N870   1.318       .  A
N864       Mn872   2.194       .  S
N865        C873   1.348       .  A
N866        N868   1.319       .  A
N866        N867   1.327       .  A
N866       Mn884   2.226       .  S
N867        C874   1.355       .  A
N868        N869   1.318       .  A
N868       Mn872   2.207       .  S
N869        C874   1.351       .  A
N870        N871   1.318   1_545  A
N870       Mn884   2.185       .  S
N871        C873   1.347       .  A
Mn872      Cl885   2.555       .  S
N875        N876   1.330       .  A
N875        N881   1.314       .  A
N875       Mn883   2.224       .  S
N876        C886   1.356       .  A
N877        N878   1.330   1_545  A
N877        N879   1.316       .  A
N877       Mn884   2.246       .  S
N878        C887   1.359       .  A
N879        N880   1.329   1_545  A
N879       Mn883   2.247       .  S
N880        C887   1.362       .  A
N881        N882   1.318       .  A
N881       Mn884   2.209       .  S
N882        C886   1.354       .  A
Mn883      Cl885   2.558       .  S
Mn884      Cl885   2.550       .  S
O888        C915   1.263       .  A
O888       Mn914   2.071       .  S
C889       C1636   1.464       .  S
C889        O922   1.261       .  A
C889        O919   1.275       .  A
O890       Mn897   2.172       .  S
O890       Mn908   2.119       .  S
O890       Mn912   2.166       .  S
O890       Mn914   2.093       .  S
O891        C901   1.272       .  A
O891       Mn925   2.097       .  S
O892        C915   1.261       .  A
O892       Mn908   2.066       .  S
O893        C920   1.268       .  A
O893       Mn912   2.154       .  S
O894       Mn925   1.953       .  S
O894       Mn914   1.950       .  S
O894        C910   1.210       .  S
C895       C1806   1.499       .  S
C895        O898   1.266       .  A
C895        O921   1.208       .  S
O896       Mn916   2.085       .  S
O896       Mn897   2.174       .  S
O896       Mn930   2.091       .  S
O896       Mn912   2.162       .  S
Mn897       O926   2.201       .  S
Mn897       O902   2.193       .  S
Mn897       O929   2.176       .  S
Mn897       O903   2.175       .  S
O898       Mn912   2.179       .  S
O899        C901   1.262       .  A
O899       Mn906   2.058       .  S
C900       C1619   1.526       .  S
C900        O926   1.270       .  A
C900        O913   1.210       .  S
C901       C1876   1.463       .  S
O902        C927   1.269       .  A
O903       Mn906   2.080       .  S
O903       Mn925   2.098       .  S
O903       Mn912   2.166       .  S
O904       Mn908   1.935       .  S
O904       Mn930   1.952       .  S
O904        C927   1.215       .  S
C905       C1789   1.487       .  S
C905        O931   1.274       .  A
C905        O907   1.268       .  A
Mn906       O919   2.099       .  S
Mn906       O921   1.931       .  S
Mn906       O913   1.961       .  S
O907       Mn930   2.088       .  S
Mn908       O924   2.081       .  S
Mn908       O918   1.965       .  S
O909        C911   1.264       .  A
O909       Mn914   2.062       .  S
C910       C1859   1.520       .  S
C910        O928   1.267       .  A
C911       C1499   1.454       .  S
C911        O924   1.272       .  A
Mn912       O928   2.187       .  S
O913       Mn916   1.962       .  S
Mn914       O932   1.953       .  S
C915       C1836   1.442       .  S
Mn916       O923   2.054       .  S
Mn916       O931   2.095       .  S
Mn916       O921   1.934       .  S
C917       C1739   1.475       .  S
C917        O923   1.262       .  A
C917        O933   1.266       .  A
O918       Mn930   1.971       .  S
O918        C920   1.223       .  S
C920       C1816   1.511       .  S
O922       Mn925   2.050       .  S
Mn925       O932   1.933       .  S
C927       C1756   1.521       .  S
O929        C934   1.270       .  A
Mn930       O933   2.097       .  S
O932        C934   1.212       .  S
C934       C1519   1.511       .  S
C935        C936   1.417       .  A
C935        C940   1.404       .  A
C935        H942   1.083       .  S
C936        C937   1.417       .  A
C937        C938   1.421       .  A
C937       Br944   1.916       .  S
C938        C939   1.413       .  A
C938        H943   1.083       .  S
C939        C940   1.407       .  A
C940       Br941   1.921       .  S
C945        C946   1.402       .  A
C945        C950   1.379       .  A
C945        H952   1.083       .  S
C946        C947   1.409       .  A
C947        C948   1.396       .  A
C947       Br954   1.917       .  S
C948        C949   1.401       .  A
C948        H953   1.083       .  S
C949        C950   1.411       .  A
C950       Br951   1.930       .  S
C955        C956   1.416       .  A
C955        C960   1.393       .  A
C955        H962   1.082       .  S
C956        C957   1.414       .  A
C957        C958   1.416       .  A
C957       Br964   1.916       .  S
C958        C959   1.411       .  A
C958        H963   1.083       .  S
C959        C960   1.400       .  A
C960       Br961   1.922       .  S
C965        C966   1.408       .  A
C965        C970   1.404       .  A
C965        H972   1.083       .  S
C966        C967   1.414       .  A
C967        C968   1.386       .  A
C967       Br974   1.927       .  S
C968        C969   1.407       .  A
C968        H973   1.082       .  S
C969        C970   1.416       .  A
C970       Br971   1.922       .  S
C975        C976   1.415       .  A
C975        C980   1.407       .  A
C975        H982   1.084       .  S
C976        C977   1.417       .  A
C977        C978   1.422       .  A
C977       Br984   1.916       .  S
C978        C979   1.415       .  A
C978        H983   1.083       .  S
C979        C980   1.411       .  A
C980       Br981   1.919       .  S
C985        C986   1.399       .  A
C985        C990   1.380       .  A
C985        H992   1.083       .  S
C986        C987   1.417       .  A
C987        C988   1.395       .  A
C987       Br994   1.922       .  S
C988        C989   1.400       .  A
C988        H993   1.084       .  S
C989        C990   1.416       .  A
C990       Br991   1.930       .  S
C995        C996   1.401       .  A
C995       C1000   1.384       .  A
C995       H1002   1.084       .  S
C996        C997   1.415       .  A
C997        C998   1.403       .  A
C997      Br1004   1.920       .  S
C998        C999   1.403       .  A
C998       H1003   1.084       .  S
C999       C1000   1.408       .  A
C1000     Br1001   1.925       .  S
C1005      C1006   1.414       .  A
C1005      C1010   1.409       .  A
C1005      H1012   1.082       .  S
C1006      C1007   1.403       .  A
C1007      C1008   1.389       .  A
C1007     Br1014   1.925       .  S
C1008      C1009   1.417       .  A
C1008      H1013   1.082       .  S
C1009      C1010   1.404       .  A
C1010     Br1011   1.914       .  S
C1015      C1016   1.411       .  A
C1015      C1020   1.421       .  A
C1015      H1022   1.082       .  S
C1016      C1017   1.428       .  A
C1017      C1018   1.405       .  A
C1017     Br1024   1.923       .  S
C1018      C1019   1.400       .  A
C1018      H1023   1.083       .  S
C1019      C1020   1.419       .  A
C1020     Br1021   1.916   1_565  S
C1025      C1026   1.397       .  A
C1025      C1030   1.388       .  A
C1025      H1032   1.084       .  S
C1026      C1027   1.414       .  A
C1027      C1028   1.403       .  A
C1027     Br1034   1.917       .  S
C1028      C1029   1.402       .  A
C1028      H1033   1.084       .  S
C1029      C1030   1.411       .  A
C1030     Br1031   1.922       .  S
C1035      C1036   1.410       .  A
C1035      C1040   1.419       .  A
C1035      H1042   1.083       .  S
C1036      C1037   1.409       .  A
C1037      C1038   1.400       .  A
C1037     Br1044   1.922       .  S
C1038      C1039   1.413       .  A
C1038      H1043   1.083       .  S
C1039      C1040   1.418       .  A
C1040     Br1041   1.917       .  S
C1045      C1046   1.400       .  A
C1045      C1050   1.391       .  A
C1045      H1052   1.084       .  S
C1046      C1047   1.407       .  A
C1047      C1048   1.384       .  A
C1047     Br1054   1.923       .  S
C1048      C1049   1.396       .  A
C1048      H1053   1.084       .  S
C1049      C1050   1.404       .  A
C1050     Br1051   1.916       .  S
C1055      C1056   1.401       .  A
C1055      C1060   1.381       .  A
C1055      H1062   1.104       .  S
C1056      C1057   1.414       .  A
C1057      C1058   1.401       .  A
C1057     Br1064   1.924       .  S
C1058      C1059   1.411       .  A
C1058      H1063   1.088       .  S
C1059      C1060   1.412       .  A
C1060     Br1061   1.926       .  S
C1065      C1066   1.416       .  A
C1065      C1070   1.412       .  A
C1065      H1072   1.081       .  S
C1066      C1067   1.404       .  A
C1067      C1068   1.386       .  A
C1067     Br1074   1.924       .  S
C1068      C1069   1.413       .  A
C1068      H1073   1.097       .  S
C1069      C1070   1.406       .  A
C1070     Br1071   1.915       .  S
C1075      C1076   1.403       .  A
C1075      C1080   1.401       .  A
C1075      H1082   1.083       .  S
C1076      C1077   1.407       .  A
C1077      C1078   1.383       .  A
C1077     Br1084   1.923       .  S
C1078      C1079   1.397       .  A
C1078      H1083   1.083       .  S
C1079      C1080   1.409       .  A
C1080     Br1081   1.918       .  S
C1085      C1086   1.412       .  A
C1085      C1090   1.422       .  A
C1085      H1092   1.083       .  S
C1086      C1087   1.406       .  A
C1087      C1088   1.404       .  A
C1087     Br1094   1.920       .  S
C1088      C1089   1.416       .  A
C1088      H1093   1.082       .  S
C1089      C1090   1.418       .  A
C1090     Br1091   1.915       .  S
C1095      C1096   1.407       .  A
C1095      C1100   1.379       .  A
C1095      H1102   1.084       .  S
C1096      C1097   1.404       .  A
C1097      C1098   1.393       .  A
C1097     Br1104   1.920       .  S
C1098      C1099   1.412       .  A
C1098      H1103   1.082       .  S
C1099      C1100   1.408       .  A
C1100     Br1101   1.925       .  S
C1105      C1106   1.411       .  A
C1105      C1110   1.420       .  A
C1105      H1112   1.083       .  S
C1106      C1107   1.427       .  A
C1107      C1108   1.403       .  A
C1107     Br1114   1.924       .  S
C1108      C1109   1.401       .  A
C1108      H1113   1.083       .  S
C1109      C1110   1.420       .  A
C1110     Br1111   1.917       .  S
C1115      C1116   1.398       .  A
C1115      C1120   1.391       .  A
C1115      H1122   1.084       .  S
C1116      C1117   1.423       .  A
C1117      C1118   1.383       .  A
C1117     Br1124   1.932       .  S
C1118      C1119   1.397       .  A
C1118      H1123   1.083       .  S
C1119      C1120   1.417       .  A
C1120     Br1121   1.923       .  S
C1125      C1126   1.414       .  A
C1125      C1130   1.427       .  A
C1125      H1132   1.082       .  S
C1126      C1127   1.433       .  A
C1127      C1128   1.412       .  A
C1127     Br1134   1.924       .  S
C1128      C1129   1.401       .  A
C1128      H1133   1.083       .  S
C1129      C1130   1.421       .  A
C1130     Br1131   1.915       .  S
C1135      C1136   1.409       .  A
C1135      C1140   1.416       .  A
C1135      H1142   1.082       .  S
C1136      C1137   1.422       .  A
C1137      C1138   1.393       .  A
C1137     Br1144   1.926       .  S
C1138      C1139   1.395       .  A
C1138      H1143   1.084       .  S
C1139      C1140   1.413       .  A
C1140     Br1141   1.916       .  S
C1145      C1146   1.403       .  A
C1145      C1150   1.399       .  A
C1145      H1152   1.084       .  S
C1146      C1147   1.406       .  A
C1147      C1148   1.385       .  A
C1147     Br1154   1.927       .  S
C1148      C1149   1.406   1_565  A
C1148      H1153   1.084       .  S
C1149      C1150   1.410   1_545  A
C1150     Br1151   1.915   1_565  S
C1155      C1156   1.398       .  A
C1155      C1160   1.403       .  A
C1155      H1162   1.084       .  S
C1156      C1157   1.418       .  A
C1157      C1158   1.423       .  A
C1157     Br1164   1.914       .  S
C1158      C1159   1.413       .  A
C1158      H1163   1.082       .  S
C1159      C1160   1.431       .  A
C1160     Br1161   1.922       .  S
C1165      C1166   1.411       .  A
C1165      C1170   1.393       .  A
C1165      H1172   1.083       .  S
C1166      C1167   1.409       .  A
C1167      C1168   1.377       .  A
C1167     Br1174   1.923       .  S
C1168      C1169   1.405       .  A
C1168      H1173   1.082       .  S
C1169      C1170   1.408       .  A
C1170     Br1171   1.921       .  S
C1175      C1176   1.408       .  A
C1175      C1180   1.406       .  A
C1175      H1182   1.083       .  S
C1176      C1177   1.416       .  A
C1177      C1178   1.393       .  A
C1177     Br1184   1.923       .  S
C1178      C1179   1.397       .  A
C1178      H1183   1.084       .  S
C1179      C1180   1.407       .  A
C1180     Br1181   1.916       .  S
C1185      C1186   1.402       .  A
C1185      C1190   1.402       .  A
C1185      H1192   1.083       .  S
C1186      C1187   1.410       .  A
C1187      C1188   1.385       .  A
C1187     Br1194   1.928       .  S
C1188      C1189   1.406       .  A
C1188      H1193   1.083       .  S
C1189      C1190   1.415       .  A
C1190     Br1191   1.919       .  S
C1195      C1196   1.410       .  A
C1195      C1200   1.394       .  A
C1195      H1202   1.084       .  S
C1196      C1197   1.413       .  A
C1197      C1198   1.407       .  A
C1197     Br1204   1.920       .  S
C1198      C1199   1.409       .  A
C1198      H1203   1.085       .  S
C1199      C1200   1.407       .  A
C1200     Br1201   1.921       .  S
C1205      C1206   1.402       .  A
C1205      C1210   1.400       .  A
C1205      H1212   1.084       .  S
C1206      C1207   1.408       .  A
C1207      C1208   1.390       .  A
C1207     Br1214   1.925       .  S
C1208      C1209   1.406       .  A
C1208      H1213   1.084       .  S
C1209      C1210   1.412       .  A
C1210     Br1211   1.918       .  S
C1215      C1216   1.411       .  A
C1215      C1220   1.403       .  A
C1215      H1222   1.085       .  S
C1216      C1217   1.405       .  A
C1217      C1218   1.389       .  A
C1217     Br1224   1.922       .  S
C1218      C1219   1.409       .  A
C1218      H1223   1.083       .  S
C1219      C1220   1.408       .  A
C1220     Br1221   1.919       .  S
C1225      C1226   1.405       .  A
C1225      C1230   1.404       .  A
C1225      H1232   1.084       .  S
C1226      C1227   1.418       .  A
C1227      C1228   1.388       .  A
C1227     Br1234   1.930       .  S
C1228      C1229   1.405       .  A
C1228      H1233   1.083       .  S
C1229      C1230   1.420       .  A
C1230     Br1231   1.920       .  S
C1235      C1236   1.408       .  A
C1235      C1240   1.385       .  A
C1235      H1242   1.082       .  S
C1236      C1237   1.413       .  A
C1237      C1238   1.404       .  A
C1237     Br1244   1.919       .  S
C1238      C1239   1.406       .  A
C1238      H1243   1.084       .  S
C1239      C1240   1.402       .  A
C1240     Br1241   1.923       .  S
C1245      C1246   1.405       .  A
C1245      C1250   1.384       .  A
C1245      H1252   1.079       .  S
C1246      C1247   1.416       .  A
C1247      C1248   1.405       .  A
C1247     Br1254   1.922       .  S
C1248      C1249   1.409       .  A
C1248      H1253   1.083   1_455  S
C1249      C1250   1.409       .  A
C1250     Br1251   1.920       .  S
C1255      C1256   1.410       .  A
C1255      C1260   1.407   1_545  A
C1255      H1262   1.084       .  S
C1256      C1257   1.408   1_545  A
C1257      C1258   1.384       .  A
C1257     Br1264   1.919       .  S
C1258      C1259   1.406       .  A
C1258      H1263   1.082       .  S
C1259      C1260   1.416       .  A
C1260     Br1261   1.921       .  S
C1265      C1266   1.409       .  A
C1265      C1270   1.388       .  A
C1265      H1272   1.084       .  S
C1266      C1267   1.414       .  A
C1267      C1268   1.407       .  A
C1267     Br1274   1.918       .  S
C1268      C1269   1.406       .  A
C1268      H1273   1.085       .  S
C1269      C1270   1.403       .  A
C1270     Br1271   1.924       .  S
C1275      C1276   1.408       .  A
C1275      C1280   1.405       .  A
C1275      H1282   1.084       .  S
C1276      C1277   1.401       .  A
C1277      C1278   1.379       .  A
C1277     Br1284   1.926       .  S
C1278      C1279   1.411       .  A
C1278      H1283   1.084       .  S
C1279      C1280   1.408       .  A
C1280     Br1281   1.916       .  S
C1285      C1286   1.411       .  A
C1285      C1290   1.408       .  A
C1285      H1292   1.083       .  S
C1286      C1287   1.412       .  A
C1287      C1288   1.387       .  A
C1287     Br1294   1.921       .  S
C1288      C1289   1.405       .  A
C1288      H1293   1.081       .  S
C1289      C1290   1.417       .  A
C1290     Br1291   1.922       .  S
C1295      C1296   1.399       .  A
C1295      C1300   1.386       .  A
C1295      H1302   1.084       .  S
C1296      C1297   1.405       .  A
C1297      C1298   1.399       .  A
C1297     Br1304   1.919       .  S
C1298      C1299   1.407       .  A
C1298      H1303   1.083       .  S
C1299      C1300   1.409       .  A
C1300     Br1301   1.923       .  S
C1305      C1306   1.412       .  A
C1305      C1310   1.422       .  A
C1305      H1312   1.082       .  S
C1306      C1307   1.429       .  A
C1307      C1308   1.407       .  A
C1307     Br1314   1.921       .  S
C1308      C1309   1.398       .  A
C1308      H1313   1.084       .  S
C1309      C1310   1.415       .  A
C1310     Br1311   1.914       .  S
C1315      C1316   1.395       .  A
C1315      C1320   1.382       .  A
C1315      H1322   1.086       .  S
C1316      C1317   1.402       .  A
C1317      C1318   1.391       .  A
C1317     Br1324   1.914       .  S
C1318      C1319   1.402       .  A
C1318      H1323   1.084       .  S
C1319      C1320   1.412       .  A
C1320     Br1321   1.925       .  S
C1325      C1326   1.414       .  A
C1325      C1330   1.401       .  A
C1325      H1332   1.083       .  S
C1326      C1327   1.418       .  A
C1327      C1328   1.417       .  A
C1327     Br1334   1.916       .  S
C1328      C1329   1.409       .  A
C1328      H1333   1.083       .  S
C1329      C1330   1.405       .  A
C1330     Br1331   1.920       .  S
C1335      C1336   1.402       .  A
C1335      C1340   1.384       .  A
C1335      H1342   1.083       .  S
C1336      C1337   1.412       .  A
C1337      C1338   1.404       .  A
C1337     Br1344   1.918       .  S
C1338      C1339   1.404       .  A
C1338      H1343   1.083       .  S
C1339      C1340   1.407       .  A
C1340     Br1341   1.925       .  S
C1345      C1346   1.418       .  A
C1345      C1350   1.394       .  A
C1345      H1352   1.081       .  S
C1346      C1347   1.405       .  A
C1347      C1348   1.415       .  A
C1347     Br1354   1.914       .  S
C1348      C1349   1.419       .  A
C1348      H1353   1.082       .  S
C1349      C1350   1.405       .  A
C1350     Br1351   1.924       .  S
C1355      C1356   1.403       .  A
C1355      C1360   1.379       .  A
C1355      H1362   1.082       .  S
C1356      C1357   1.410       .  A
C1357      C1358   1.394       .  A
C1357     Br1364   1.914       .  S
C1358      C1359   1.398       .  A
C1358      H1363   1.080       .  S
C1359      C1360   1.411       .  A
C1360     Br1361   1.930       .  S
C1365      C1366   1.411       .  A
C1365      C1370   1.403       .  A
C1365      H1372   1.084       .  S
C1366      C1367   1.415       .  A
C1367      C1368   1.421       .  A
C1367     Br1374   1.914       .  S
C1368      C1369   1.416       .  A
C1368      H1373   1.083       .  S
C1369      C1370   1.417       .  A
C1370     Br1371   1.923       .  S
C1375      C1376   1.413       .  A
C1375      C1380   1.393       .  A
C1375      H1382   1.083       .  S
C1376      C1377   1.411       .  A
C1377      C1378   1.376       .  A
C1377     Br1384   1.927       .  S
C1378      C1379   1.405       .  A
C1378      H1383   1.083       .  S
C1379      C1380   1.403       .  A
C1380     Br1381   1.920       .  S
C1385      C1386   1.414       .  A
C1385      C1390   1.424       .  A
C1385      H1392   1.083       .  S
C1386      C1387   1.408       .  A
C1387      C1388   1.406       .  A
C1387     Br1394   1.919       .  S
C1388      C1389   1.415       .  A
C1388      H1393   1.083       .  S
C1389      C1390   1.420       .  A
C1390     Br1391   1.916       .  S
C1395      C1396   1.395       .  A
C1395      C1400   1.393       .  A
C1395      H1402   1.084       .  S
C1396      C1397   1.415       .  A
C1397      C1398   1.418       .  A
C1397     Br1404   1.915       .  S
C1398      C1399   1.410       .  A
C1398      H1403   1.083       .  S
C1399      C1400   1.419       .  A
C1400     Br1401   1.920       .  S
C1405      C1406   1.400       .  A
C1405      C1410   1.393       .  A
C1405      H1412   1.085       .  S
C1406      C1407   1.402       .  A
C1407      C1408   1.393       .  A
C1407     Br1414   1.918       .  S
C1408      C1409   1.403       .  A
C1408      H1413   1.083       .  S
C1409      C1410   1.410       .  A
C1410     Br1411   1.919       .  S
C1415      C1416   1.404       .  A
C1415      C1420   1.403       .  A
C1415      H1422   1.083       .  S
C1416      C1417   1.404       .  A
C1417      C1418   1.388       .  A
C1417     Br1424   1.919       .  S
C1418      C1419   1.402       .  A
C1418      H1423   1.084       .  S
C1419      C1420   1.412       .  A
C1420     Br1421   1.919       .  S
C1425      C1426   1.392       .  A
C1425      C1430   1.383       .  A
C1425      H1432   1.085       .  S
C1426      C1427   1.405       .  A
C1427      C1428   1.404       .  A
C1427     Br1434   1.914       .  S
C1428      C1429   1.406       .  A
C1428      H1433   1.083       .  S
C1429      C1430   1.420       .  A
C1430     Br1431   1.929       .  S
C1435      C1436   1.409       .  A
C1435      C1440   1.406       .  A
C1435      H1442   1.083       .  S
C1436      C1437   1.420       .  A
C1437      C1438   1.390       .  A
C1437     Br1444   1.928       .  S
C1438      C1439   1.404       .  A
C1438      H1443   1.083       .  S
C1439      C1440   1.419       .  A
C1440     Br1441   1.922       .  S
C1445      C1446   1.412       .  A
C1445      C1450   1.390       .  A
C1445      H1452   1.084       .  S
C1446      C1447   1.412       .  A
C1447      C1448   1.408       .  A
C1447     Br1454   1.917       .  S
C1448      C1449   1.409       .  A
C1448      H1453   1.083       .  S
C1449      C1450   1.403       .  A
C1450     Br1451   1.923       .  S
C1455      C1456   1.407       .  A
C1455      C1460   1.387       .  A
C1455      H1462   1.084       .  S
C1456      C1457   1.414       .  A
C1457      C1458   1.401       .  A
C1457     Br1464   1.922       .  S
C1458      C1459   1.409       .  A
C1458      H1463   1.084       .  S
C1459      C1460   1.413       .  A
C1460     Br1461   1.923       .  S
C1465      C1466   1.406       .  A
C1465      C1470   1.405       .  A
C1465      H1472   1.084       .  S
C1466      C1467   1.425       .  A
C1467      C1468   1.390       .  A
C1467     Br1474   1.927       .  S
C1468      C1469   1.393       .  A
C1468      H1473   1.085       .  S
C1469      C1470   1.411       .  A
C1470     Br1471   1.916       .  S
C1475      C1476   1.400       .  A
C1475      C1480   1.387       .  A
C1475      H1482   1.084       .  S
C1476      C1477   1.407       .  A
C1477      C1478   1.404       .  A
C1477     Br1484   1.917       .  S
C1478      C1479   1.410       .  A
C1478      H1483   1.084       .  S
C1479      C1480   1.415       .  A
C1480     Br1481   1.926       .  S
C1485      C1486   1.411       .  A
C1485      C1490   1.390       .  A
C1485      H1492   1.082       .  S
C1486      C1487   1.414       .  A
C1487      C1488   1.408       .  A
C1487     Br1494   1.919       .  S
C1488      C1489   1.407       .  A
C1488      H1493   1.084       .  S
C1489      C1490   1.401       .  A
C1490     Br1491   1.921       .  S
C1495      C1496   1.404       .  A
C1495      C1500   1.398       .  A
C1495      H1502   1.084       .  S
C1496      C1497   1.415       .  A
C1497      C1498   1.380       .  A
C1497     Br1504   1.926       .  S
C1498      C1499   1.394       .  A
C1498      H1503   1.085       .  S
C1499      C1500   1.408       .  A
C1500     Br1501   1.919       .  S
C1505      C1506   1.409       .  A
C1505      C1510   1.388       .  A
C1505      H1512   1.079       .  S
C1506      C1507   1.407       .  A
C1507      C1508   1.404       .  A
C1507     Br1514   1.918       .  S
C1508      C1509   1.411       .  A
C1508      H1513   1.083       .  S
C1509      C1510   1.404       .  A
C1510     Br1511   1.923       .  S
C1515      C1516   1.390       .  A
C1515      C1520   1.396       .  A
C1515      H1522   1.085       .  S
C1516      C1517   1.413       .  A
C1517      C1518   1.414       .  A
C1517     Br1524   1.915       .  S
C1518      C1519   1.409       .  A
C1518      H1523   1.083       .  S
C1519      C1520   1.433       .  A
C1520     Br1521   1.921       .  S
C1525      C1526   1.405       .  A
C1525      C1530   1.385       .  A
C1525      H1532   1.083       .  S
C1526      C1527   1.414       .  A
C1527      C1528   1.403       .  A
C1527     Br1534   1.918       .  S
C1528      C1529   1.403       .  A
C1528      H1533   1.084       .  S
C1529      C1530   1.406       .  A
C1530     Br1531   1.925       .  S
C1535      C1536   1.415       .  A
C1535      C1540   1.421       .  A
C1535      H1542   1.083       .  S
C1536      C1537   1.409       .  A
C1537      C1538   1.397       .  A
C1537     Br1544   1.923       .  S
C1538      C1539   1.410       .  A
C1538      H1543   1.077       .  S
C1539      C1540   1.415       .  A
C1540     Br1541   1.915       .  S
C1545      C1546   1.400       .  A
C1545      C1550   1.397       .  A
C1545      H1552   1.083       .  S
C1546      C1547   1.406       .  A
C1547      C1548   1.379       .  A
C1547     Br1554   1.928       .  S
C1548      C1549   1.403       .  A
C1548      H1553   1.083       .  S
C1549      C1550   1.410       .  A
C1550     Br1551   1.917       .  S
C1555      C1556   1.391       .  A
C1555      C1560   1.396       .  A
C1555      H1562   1.085       .  S
C1556      C1557   1.415       .  A
C1557      C1558   1.413       .  A
C1557     Br1564   1.916       .  S
C1558      C1559   1.407       .  A
C1558      H1563   1.083       .  S
C1559      C1560   1.433       .  A
C1560     Br1561   1.926       .  S
C1565      C1566   1.406       .  A
C1565      C1570   1.400       .  A
C1565      H1572   1.082       .  S
C1566      C1567   1.400       .  A
C1567      C1568   1.386       .  A
C1567     Br1574   1.917       .  S
C1568      C1569   1.406       .  A
C1568      H1573   1.069       .  S
C1569      C1570   1.417       .  A
C1570     Br1571   1.923       .  S
C1575      C1576   1.414       .  A
C1575      C1580   1.404       .  A
C1575      H1582   1.082       .  S
C1576      C1577   1.419       .  A
C1577      C1578   1.423       .  A
C1577     Br1584   1.917       .  S
C1578      C1579   1.414       .  A
C1578      H1583   1.083       .  S
C1579      C1580   1.410       .  A
C1580     Br1581   1.921       .  S
C1585      C1586   1.404       .  A
C1585      C1590   1.380       .  A
C1585      H1592   1.084       .  S
C1586      C1587   1.402       .  A
C1587      C1588   1.394       .  A
C1587     Br1594   1.913       .  S
C1588      C1589   1.409       .  A
C1588      H1593   1.083       .  S
C1589      C1590   1.410       .  A
C1590     Br1591   1.927       .  S
C1595      C1596   1.418       .  A
C1595      C1600   1.389       .  A
C1595      H1602   1.082       .  S
C1596      C1597   1.406       .  A
C1597      C1598   1.414       .  A
C1597     Br1604   1.914       .  S
C1598      C1599   1.416       .  A
C1598      H1603   1.083       .  S
C1599      C1600   1.401       .  A
C1600     Br1601   1.924       .  S
C1605      C1606   1.404       .  A
C1605      C1610   1.398       .  A
C1605      H1612   1.083       .  S
C1606      C1607   1.409       .  A
C1607      C1608   1.388       .  A
C1607     Br1614   1.914       .  S
C1608      C1609   1.404       .  A
C1608      H1613   1.083       .  S
C1609      C1610   1.417       .  A
C1610     Br1611   1.925       .  S
C1615      C1616   1.397       .  A
C1615      C1620   1.406       .  A
C1615      H1622   1.084       .  S
C1616      C1617   1.418       .  A
C1617      C1618   1.422       .  A
C1617     Br1624   1.915       .  S
C1618      C1619   1.412       .  A
C1618      H1623   1.083       .  S
C1619      C1620   1.433       .  A
C1620     Br1621   1.927       .  S
C1625      C1626   1.414       .  A
C1625      C1630   1.421       .  A
C1625      H1632   1.083       .  S
C1626      C1627   1.428       .  A
C1627      C1628   1.403       .  A
C1627     Br1634   1.915       .  S
C1628      C1629   1.396       .  A
C1628      H1633   1.084       .  S
C1629      C1630   1.415       .  A
C1630     Br1631   1.915       .  S
C1635      C1636   1.400       .  A
C1635      C1640   1.397       .  A
C1635      H1642   1.083       .  S
C1636      C1637   1.418       .  A
C1637      C1638   1.382       .  A
C1637     Br1644   1.929       .  S
C1638      C1639   1.398       .  A
C1638      H1643   1.083       .  S
C1639      C1640   1.413       .  A
C1640     Br1641   1.916       .  S
C1645      C1646   1.402   1_565  A
C1645      C1650   1.381       .  A
C1645      H1652   1.084       .  S
C1646      C1647   1.407   1_545  A
C1647      C1648   1.394       .  A
C1647     Br1654   1.916   1_565  S
C1648      C1649   1.400       .  A
C1648      H1653   1.084       .  S
C1649      C1650   1.399       .  A
C1650     Br1651   1.923       .  S
C1655      C1656   1.417       .  A
C1655      C1660   1.394       .  A
C1655      H1662   1.082       .  S
C1656      C1657   1.414       .  A
C1657      C1658   1.415       .  A
C1657     Br1664   1.915       .  S
C1658      C1659   1.411       .  A
C1658      H1663   1.083       .  S
C1659      C1660   1.401       .  A
C1660     Br1661   1.922       .  S
C1665      C1666   1.406       .  A
C1665      C1670   1.392       .  A
C1665      H1672   1.082       .  S
C1666      C1667   1.420       .  A
C1667      C1668   1.396       .  A
C1667     Br1674   1.925       .  S
C1668      C1669   1.401       .  A
C1668      H1673   1.083       .  S
C1669      C1670   1.405       .  A
C1670     Br1671   1.914       .  S
C1675      C1676   1.410       .  A
C1675      C1680   1.420       .  A
C1675      H1682   1.081       .  S
C1676      C1677   1.434       .  A
C1677      C1678   1.406       .  A
C1677     Br1684   1.923       .  S
C1678      C1679   1.396       .  A
C1678      H1683   1.083       .  S
C1679      C1680   1.418       .  A
C1680     Br1681   1.916       .  S
C1685      C1686   1.397       .  A
C1685      C1690   1.382       .  A
C1685      H1692   1.083       .  S
C1686      C1687   1.413       .  A
C1687      C1688   1.395       .  A
C1687     Br1694   1.920       .  S
C1688      C1689   1.401       .  A
C1688      H1693   1.083       .  S
C1689      C1690   1.421       .  A
C1690     Br1691   1.930       .  S
C1695      C1696   1.403       .  A
C1695      C1700   1.412       .  A
C1695      H1702   1.082       .  S
C1696      C1697   1.438       .  A
C1697      C1698   1.388       .  A
C1697     Br1704   1.928       .  S
C1698      C1699   1.386       .  A
C1698      H1703   1.084       .  S
C1699      C1700   1.420       .  A
C1700     Br1701   1.916       .  S
C1705      C1706   1.399       .  A
C1705      C1710   1.387       .  A
C1705      H1712   1.084       .  S
C1706      C1707   1.409       .  A
C1707      C1708   1.401       .  A
C1707     Br1714   1.915       .  S
C1708      C1709   1.404       .  A
C1708      H1713   1.083       .  S
C1709      C1710   1.413       .  A
C1710     Br1711   1.924       .  S
C1715      C1716   1.403       .  A
C1715      C1720   1.406       .  A
C1715      H1722   1.083       .  S
C1716      C1717   1.420       .  A
C1717      C1718   1.422       .  A
C1717     Br1724   1.916       .  S
C1718      C1719   1.413       .  A
C1718      H1723   1.082       .  S
C1719      C1720   1.427       .  A
C1720     Br1721   1.922       .  S
C1725      C1726   1.399       .  A
C1725      C1730   1.391       .  A
C1725      H1732   1.085       .  S
C1726      C1727   1.400       .  A
C1727      C1728   1.381       .  A
C1727     Br1734   1.923       .  S
C1728      C1729   1.400       .  A
C1728      H1733   1.085       .  S
C1729      C1730   1.406       .  A
C1730     Br1731   1.919       .  S
C1735      C1736   1.409       .  A
C1735      C1740   1.397       .  A
C1735      H1742   1.083       .  S
C1736      C1737   1.412       .  A
C1737      C1738   1.380       .  A
C1737     Br1744   1.927       .  S
C1738      C1739   1.405       .  A
C1738      H1743   1.082       .  S
C1739      C1740   1.409       .  A
C1740     Br1741   1.917       .  S
C1745      C1746   1.396       .  A
C1745      C1750   1.385       .  A
C1745      H1752   1.084       .  S
C1746      C1747   1.411       .  A
C1747      C1748   1.401       .  A
C1747     Br1754   1.919       .  S
C1748      C1749   1.402       .  A
C1748      H1753   1.084       .  S
C1749      C1750   1.411       .  A
C1750     Br1751   1.919       .  S
C1755      C1756   1.414       .  A
C1755      C1760   1.424       .  A
C1755      H1762   1.080       .  S
C1756      C1757   1.425       .  A
C1757      C1758   1.406       .  A
C1757     Br1764   1.920       .  S
C1758      C1759   1.399       .  A
C1758      H1763   1.083       .  S
C1759      C1760   1.416       .  A
C1760     Br1761   1.915       .  S
C1765      C1766   1.402       .  A
C1765      C1770   1.407       .  A
C1765      H1772   1.082       .  S
C1766      C1767   1.421       .  A
C1767      C1768   1.422       .  A
C1767     Br1774   1.917       .  S
C1768      C1769   1.411       .  A
C1768      H1773   1.082       .  S
C1769      C1770   1.428       .  A
C1770     Br1771   1.923       .  S
C1775      C1776   1.392       .  A
C1775      C1780   1.390       .  A
C1775      H1782   1.085       .  S
C1776      C1777   1.409       .  A
C1777      C1778   1.406       .  A
C1777     Br1784   1.916       .  S
C1778      C1779   1.407       .  A
C1778      H1783   1.083       .  S
C1779      C1780   1.426       .  A
C1780     Br1781   1.927       .  S
C1785      C1786   1.405       .  A
C1785      C1790   1.391       .  A
C1785      H1792   1.084       .  S
C1786      C1787   1.419       .  A
C1787      C1788   1.401       .  A
C1787     Br1794   1.921       .  S
C1788      C1789   1.405       .  A
C1788      H1793   1.084       .  S
C1789      C1790   1.419       .  A
C1790     Br1791   1.928       .  S
C1795      C1796   1.411       .  A
C1795      C1800   1.402       .  A
C1795      H1802   1.084       .  S
C1796      C1797   1.416       .  A
C1797      C1798   1.384       .  A
C1797     Br1804   1.927       .  S
C1798      C1799   1.405       .  A
C1798      H1803   1.083       .  S
C1799      C1800   1.413       .  A
C1800     Br1801   1.921       .  S
C1805      C1806   1.414       .  A
C1805      C1810   1.395       .  A
C1805      H1812   1.081       .  S
C1806      C1807   1.406       .  A
C1807      C1808   1.412       .  A
C1807     Br1814   1.916       .  S
C1808      C1809   1.418       .  A
C1808      H1813   1.084       .  S
C1809      C1810   1.406       .  A
C1810     Br1811   1.922       .  S
C1815      C1816   1.411       .  A
C1815      C1820   1.416       .  A
C1815      H1822   1.083       .  S
C1816      C1817   1.425       .  A
C1817      C1818   1.405       .  A
C1817     Br1824   1.923       .  S
C1818      C1819   1.399       .  A
C1818      H1823   1.083       .  S
C1819      C1820   1.412       .  A
C1820     Br1821   1.915       .  S
C1825      C1826   1.399       .  A
C1825      C1830   1.407       .  A
C1825      H1832   1.084       .  S
C1826      C1827   1.420       .  A
C1827      C1828   1.423       .  A
C1827     Br1834   1.916       .  S
C1828      C1829   1.412       .  A
C1828      H1833   1.083       .  S
C1829      C1830   1.432       .  A
C1830     Br1831   1.925       .  S
C1835      C1836   1.394       .  A
C1835      C1840   1.382       .  A
C1835      H1842   1.085       .  S
C1836      C1837   1.406       .  A
C1837      C1838   1.395       .  A
C1837     Br1844   1.917       .  S
C1838      C1839   1.400       .  A
C1838      H1843   1.084       .  S
C1839      C1840   1.408       .  A
C1840     Br1841   1.923       .  S
C1845      C1846   1.408       .  A
C1845      C1850   1.395       .  A
C1845      H1852   1.082       .  S
C1846      C1847   1.411       .  A
C1847      C1848   1.381       .  A
C1847     Br1854   1.926       .  S
C1848      C1849   1.404       .  A
C1848      H1853   1.084       .  S
C1849      C1850   1.405       .  A
C1850     Br1851   1.915       .  S
C1855      C1856   1.398       .  A
C1855      C1860   1.401       .  A
C1855      H1862   1.083       .  S
C1856      C1857   1.422       .  A
C1857      C1858   1.421       .  A
C1857     Br1864   1.917       .  S
C1858      C1859   1.411       .  A
C1858      H1863   1.083       .  S
C1859      C1860   1.429       .  A
C1860     Br1861   1.918       .  S
C1865      C1866   1.415       .  A
C1865      C1870   1.401       .  A
C1865      H1872   1.081       .  S
C1866      C1867   1.419       .  A
C1867      C1868   1.422       .  A
C1867     Br1874   1.915       .  S
C1868      C1869   1.413       .  A
C1868      H1873   1.083       .  S
C1869      C1870   1.405       .  A
C1870     Br1871   1.920       .  S
C1875      C1876   1.401       .  A
C1875      C1880   1.402       .  A
C1875      H1882   1.085       .  S
C1876      C1877   1.413       .  A
C1877      C1878   1.382       .  A
C1877     Br1884   1.925       .  S
C1878      C1879   1.397       .  A
C1878      H1883   1.084       .  S
C1879      C1880   1.415       .  A
C1880     Br1881   1.919       .  S
C1885      C1886   1.407       .  A
C1885      C1890   1.393       .  A
C1885      H1892   1.084       .  S
C1886      C1887   1.414       .  A
C1887      C1888   1.380       .  A
C1887     Br1894   1.927       .  S
C1888      C1889   1.404       .  A
C1888      H1893   1.082       .  S
C1889      C1890   1.409       .  A
C1890     Br1891   1.914       .  S
