geometry optimzed in LAMMPS
_audit_creation_date              2020-11-30 
_audit_creation_method            'lammps2cif' 
_symmetry_space_group_name_H-M    'P1' 
_symmetry_Int_Tables_number       1 
_symmetry_cell_setting            triclinic 
loop_ 
_symmetry_equiv_pos_as_xyz 
  x,y,z 
_cell_length_a                    24.339818491655866 
_cell_length_b                    25.05354178045063 
_cell_length_c                    24.914261032029625 
_cell_angle_alpha                 89.99331117334478 
_cell_angle_beta                  89.55148662898739 
_cell_angle_gamma                 90.38478277965558 
loop_ 
_atom_site_label 
_atom_site_type_symbol 
_atom_site_fract_x 
_atom_site_fract_y 
_atom_site_fract_z 
_atom_site_charge 
O1          O  0.42767273  0.08790142  0.28944750    -0.73150
O2          O  0.06975061  0.08660240  0.20856159    -0.73180
O3          O  0.04510295  0.08116831  0.31713037    -0.73230
O4          O  0.45240067  0.07858007  0.18234812    -0.73280
O5          O  0.44867843  0.16489362  0.18602961    -0.73210
O6          O  0.05239683  0.16682985  0.30757006    -0.73190
O7          O  0.06071382  0.17153996  0.19352868    -0.73170
O8          O  0.43907010  0.17352391  0.30027221    -0.73230
Ni9        Ni  0.49882173  0.08033166  0.24943480     1.25410
Ni10       Ni  0.00015979  0.17225058  0.24690191     1.25360
C11         C  0.41057223  0.13183857  0.31250100     0.89030
C12         C  0.08686486  0.12868584  0.18243451     0.88970
C13         C  0.06791629  0.12462767  0.33409524     0.88990
C14         C  0.43159657  0.12143641  0.16258453     0.89160
C15         C  0.37149924  0.12894415  0.36753509    -0.01210
O16         O  0.29991080  0.06673813  0.41560173    -0.73150
O17         O  0.19565533  0.44149991  0.41603305    -0.73180
O18         O  0.31048927  0.45333458  0.42238898    -0.73230
O19         O  0.18195225  0.05423137  0.42152729    -0.73280
O20         O  0.17990789  0.05431944  0.33325126    -0.73210
O21         O  0.30797947  0.44837769  0.33427125    -0.73190
O22         O  0.18918982  0.44133912  0.32906168    -0.73170
O23         O  0.29805843  0.06375910  0.32717832    -0.73230
Ni24       Ni  0.24683990  0.50416904  0.42152147     1.25410
Ni25       Ni  0.24412230  0.50199494  0.32794969     1.25360
C26         C  0.31764730  0.08659598  0.36986817     0.89030
C27         C  0.17313627  0.41986525  0.37360740     0.88970
C28         C  0.33035482  0.43169236  0.37950149     0.88990
C29         C  0.15912370  0.07257103  0.37853296     0.89160
O30         O  0.31895393  0.04969917  0.16837452    -0.73150
O31         O  0.18675366  0.44769487  0.17169145    -0.73180
O32         O  0.30805011  0.43949379  0.17515417    -0.73230
O33         O  0.19853205  0.05940487  0.17632150    -0.73280
O34         O  0.20353936  0.06309176  0.08872623    -0.73210
O35         O  0.29942184  0.43673537  0.08884787    -0.73190
O36         O  0.18647010  0.45027819  0.08385970    -0.73170
O37         O  0.31672366  0.04822675  0.08021115    -0.73230
Ni38       Ni  0.25301344  0.49913100  0.17613572     1.25410
Ni39       Ni  0.25148535  0.49954650  0.08289031     1.25360
C40         C  0.34000011  0.06671401  0.12243673     0.89030
C41         C  0.16379199  0.43135913  0.12664441     0.88970
C42         C  0.32279680  0.41675580  0.13095936     0.88990
C43         C  0.18242856  0.08268063  0.13293662     0.89160
C44         C  0.37860412  0.12198035  0.11967907    -0.01210
O45         O  0.41343393  0.29621869  0.06461224    -0.73150
O46         O  0.41165844  0.20178094  0.43498785    -0.73180
O47         O  0.41870973  0.31460398  0.45209210    -0.73230
O48         O  0.42138299  0.18538127  0.04815622    -0.73280
O49         O  0.33185777  0.17961108  0.04572310    -0.73210
O50         O  0.32888601  0.31443340  0.45563549    -0.73190
O51         O  0.32287168  0.19799954  0.43503565    -0.73170
O52         O  0.32360391  0.29604951  0.06684525    -0.73230
Ni53       Ni  0.41894944  0.24942779  0.99974061     1.25410
Ni54       Ni  0.32370855  0.24698663  0.00096791     1.25360
C55         C  0.36854541  0.31549832  0.08690122     0.89030
C56         C  0.36778252  0.18046445  0.41333180     0.88970
C57         C  0.37419003  0.33730997  0.43650918     0.88990
C58         C  0.37818692  0.16007542  0.06423401     0.89160
C59         C  0.37209806  0.37758396  0.38175484    -0.01210
C60         C  0.37304104  0.37107060  0.12595385    -0.01210
O61         O  0.06330305  0.41904167  0.30315540    -0.73150
O62         O  0.43420214  0.41939794  0.19857975    -0.73180
O63         O  0.44317456  0.42533149  0.31453274    -0.73230
O64         O  0.05236240  0.42367217  0.18976155    -0.73280
O65         O  0.05109025  0.33688694  0.19291157    -0.73210
O66         O  0.44605366  0.33895352  0.31532277    -0.73190
O67         O  0.43620489  0.33185151  0.20053909    -0.73170
O68         O  0.05797943  0.33181016  0.30671773    -0.73230
Ni69       Ni  0.49817569  0.42506815  0.25171217     1.25410
Ni70       Ni  0.49764341  0.33242614  0.25366642     1.25360
C71         C  0.08213292  0.37421353  0.32343785     0.89030
C72         C  0.41424524  0.37404387  0.18021892     0.88970
C73         C  0.42508142  0.38164303  0.33670399     0.88990
C74         C  0.07129006  0.37967937  0.17018801     0.89160
C75         C  0.11914615  0.12737343  0.37991584    -0.01210
C76         C  0.12223300  0.37347004  0.37793036    -0.01210
C77         C  0.12237975  0.37675955  0.12459454    -0.01210
C78         C  0.12980433  0.12511647  0.13029435    -0.01210
O79         O  0.07872397  0.29916503  0.43986021    -0.73150
O80         O  0.08128624  0.19761782  0.06902278    -0.73180
O81         O  0.07400737  0.31343212  0.05452875    -0.73230
O82         O  0.07237877  0.18700622  0.45383984    -0.73280
O83         O  0.16233984  0.18635842  0.45551527    -0.73210
O84         O  0.16376079  0.31688701  0.04868653    -0.73190
O85         O  0.17143448  0.20223005  0.06798577    -0.73170
O86         O  0.16896767  0.29960629  0.43712255    -0.73230
Ni87       Ni  0.07363070  0.24931265  0.00468866     1.25410
Ni88       Ni  0.16933119  0.25117494  0.00241362     1.25360
C89         C  0.12419327  0.31820137  0.41701085     0.89030
C90         C  0.12801585  0.18080029  0.08985236     0.88970
C91         C  0.11861079  0.33754385  0.06931921     0.88990
C92         C  0.11684448  0.16587187  0.43557533     0.89160
C93         C  0.99718388  0.50701952  0.99936279    -0.01210
C94         C  0.24981939  0.25080556  0.24926864    -0.01210
C95         C  0.02374271  0.03350288  0.09177061     0.24880
C96         C  0.02530743  0.04170101  0.03636465    -0.23230
C97         C  0.06766574  0.07242950  0.01174624     0.19780
C98         C  0.10799891  0.09046447  0.04128772     0.24820
C99         C  0.10023879  0.08828750  0.09623927    -0.23170
C100        C  0.07102883  0.04442463  0.11615493     0.19720
F101        F  0.08957890  0.01262219  0.15592058    -0.13130
F102        F  0.98429500  0.50608148  0.11914859    -0.15500
F103        F  0.15482215  0.10839216  0.01761631    -0.15500
F104        F  0.07408807  0.07450038  0.45813862    -0.13130
C105        C  0.21351669  0.34358780  0.14694542     0.24880
C106        C  0.15698930  0.33726295  0.14937807    -0.23230
C107        C  0.13848255  0.28524293  0.16128543     0.19880
C108        C  0.17311157  0.25415068  0.18766115     0.24820
C109        C  0.21858592  0.27952844  0.21119241    -0.23170
C110        C  0.23984998  0.32582548  0.18903950     0.19720
F111        F  0.27853480  0.35637390  0.21220484    -0.13130
F112        F  0.23986839  0.35848365  0.10167241    -0.15500
F113        F  0.15569506  0.20580231  0.20210462    -0.15500
F114        F  0.08911604  0.26491720  0.14656304    -0.13130
C115        C  0.10978252  0.41529155  0.46795706     0.24880
C116        C  0.08823196  0.39886784  0.41854060    -0.23230
C117        C  0.03414837  0.41029331  0.40899222     0.19780
C118        C  0.02769515  0.46298303  0.41450080     0.24820
C119        C  0.04056283  0.48071985  0.46506063    -0.23170
C120        C  0.09020065  0.46180504  0.48667053     0.19720
F121        F  0.11614143  0.48376936  0.02838051    -0.13130
F122        F  0.15681670  0.39597666  0.48883399    -0.15500
F123        F  0.54042790  0.49525150  0.37274419    -0.15500
F124        F  0.99757881  0.37853680  0.43478094    -0.13130
C125        C  0.16404782  0.24374348  0.30377530     0.24880
C126        C  0.21523389  0.22269450  0.28757276    -0.23230
C127        C  0.24013138  0.18392512  0.31854965     0.19780
C128        C  0.21125331  0.16310282  0.35863492     0.24820
C129        C  0.15473213  0.16702799  0.35488815    -0.23170
C130        C  0.13540790  0.21758805  0.34089935     0.19720
F131        F  0.08649650  0.23762834  0.35766374    -0.13130
F132        F  0.13885921  0.28488318  0.28015533    -0.15500
F133        F  0.23597104  0.14276229  0.40208125    -0.15500
F134        F  0.28932416  0.16392465  0.30651965    -0.13130
C135        C  0.38607121  0.41542587  0.03749259     0.24880
C136        C  0.40772883  0.39584750  0.08493665    -0.23230
C137        C  0.46421863  0.38877296  0.08367232     0.19780
C138        C  0.49397356  0.42397586  0.05514302     0.24820
C139        C  0.46591597  0.46443396  0.02661118    -0.23170
C140        C  0.40820260  0.46206261  0.02453715     0.19720
F141        F  0.37395487  0.50177428  0.50964042    -0.13130
F142        F  0.33833358  0.39912550  0.01486931    -0.15500
F143        F  0.04650447  0.42687027  0.06917944    -0.15500
F144        F  0.48916677  0.34807103  0.10901787    -0.13130
C145        C  0.28174728  0.34071140  0.35744621     0.24880
C146        C  0.33838261  0.33764416  0.35583566    -0.23230
C147        C  0.35931320  0.28805195  0.34098247     0.19780
C148        C  0.33356697  0.26316465  0.30215987     0.24820
C149        C  0.28285971  0.28304052  0.28476016    -0.23170
C150        C  0.25646093  0.32329401  0.31390087     0.19720
F151        F  0.20878778  0.34560012  0.29950528    -0.13130
F152        F  0.25416076  0.36002486  0.40016282    -0.15500
F153        F  0.36022363  0.22240123  0.27985651    -0.15500
F154        F  0.40684114  0.26706917  0.35929514    -0.13130
C155        C  0.36002243  0.21260613  0.15754770     0.24880
C156        C  0.34307065  0.15999416  0.14783411    -0.23230
C157        C  0.28710033  0.15037662  0.15225321     0.19780
C158        C  0.26291948  0.16957158  0.19608669     0.24820
C159        C  0.28226525  0.21857212  0.21318897    -0.23170
C160        C  0.32684872  0.24309780  0.18638761     0.19720
F161        F  0.34523752  0.29168046  0.19839928    -0.13130
F162        F  0.40839403  0.23382621  0.14056861    -0.15500
F163        F  0.22286181  0.14141462  0.22104276    -0.15500
F164        F  0.25818196  0.14729463  0.10655761    -0.13130
C165        C  0.41214870  0.03963665  0.38444831     0.24880
C166        C  0.41286000  0.09485733  0.39070908    -0.23230
C167        C  0.46018012  0.11528602  0.41286547     0.19780
C168        C  0.46738929  0.09546506  0.46156454     0.24820
C169        C  0.46172173  0.03947040  0.46510932    -0.23170
C170        C  0.43209499  0.01208986  0.42481593     0.19720
F171        F  0.42548965  0.45880003  0.42361789    -0.13130
F172        F  0.38979470  0.01398816  0.34209448    -0.15500
F173        F  0.48516047  0.12905858  0.50020652    -0.15500
F174        F  0.48612941  0.16054682  0.39647992    -0.13130
O175        O  0.42767270  0.08790134  0.78944745    -0.73150
O176        O  0.06975058  0.08660244  0.70856152    -0.73180
O177        O  0.04510292  0.08116820  0.81713030    -0.73230
O178        O  0.45240065  0.07858015  0.68234804    -0.73280
O179        O  0.44867843  0.16489370  0.68602961    -0.73210
O180        O  0.05239676  0.16682975  0.80757011    -0.73190
O181        O  0.06071383  0.17154003  0.69352872    -0.73170
O182        O  0.43907005  0.17352384  0.80027220    -0.73230
Ni183      Ni  0.49882170  0.08033164  0.74943473     1.25410
Ni184      Ni  0.00015977  0.17225057  0.74690193     1.25360
C185        C  0.41057218  0.13183848  0.81250098     0.89030
C186        C  0.08686486  0.12868591  0.68243450     0.88970
C187        C  0.06791624  0.12462754  0.83409523     0.88990
C188        C  0.43159657  0.12143651  0.66258449     0.89160
C189        C  0.37149920  0.12894403  0.86753507    -0.01210
O190        O  0.29991077  0.06673800  0.91560172    -0.73150
O191        O  0.19565529  0.44149979  0.91603308    -0.73180
O192        O  0.31048925  0.45333446  0.92238898    -0.73230
O193        O  0.18195222  0.05423124  0.92152730    -0.73280
O194        O  0.17990785  0.05431928  0.83325127    -0.73210
O195        O  0.30797944  0.44837754  0.83427126    -0.73190
O196        O  0.18918980  0.44133896  0.82906171    -0.73170
O197        O  0.29805840  0.06375895  0.82717832    -0.73230
Ni198      Ni  0.24683987  0.50416891  0.92152147     1.25410
Ni199      Ni  0.24412227  0.50199479  0.82794970     1.25360
C200        C  0.31764726  0.08659585  0.86986815     0.89030
C201        C  0.17313624  0.41986512  0.87360743     0.88970
C202        C  0.33035479  0.43169223  0.87950149     0.88990
C203        C  0.15912365  0.07257088  0.87853297     0.89160
O204        O  0.31895394  0.04969929  0.66837450    -0.73150
O205        O  0.18675364  0.44769504  0.67169144    -0.73180
O206        O  0.30805009  0.43949387  0.67515419    -0.73230
O207        O  0.19853206  0.05940497  0.67632146    -0.73280
O208        O  0.20353937  0.06309185  0.58872620    -0.73210
O209        O  0.29942184  0.43673545  0.58884789    -0.73190
O210        O  0.18647012  0.45027828  0.58385969    -0.73170
O211        O  0.31672367  0.04822685  0.58021113    -0.73230
Ni212      Ni  0.25301344  0.49913112  0.67613571     1.25410
Ni213      Ni  0.25148537  0.49954659  0.58289029     1.25360
C214        C  0.34000012  0.06671414  0.62243670     0.89030
C215        C  0.16379199  0.43135927  0.62664440     0.88970
C216        C  0.32279679  0.41675588  0.63095939     0.88990
C217        C  0.18242858  0.08268072  0.63293659     0.89160
C218        C  0.37860414  0.12198049  0.61967903    -0.01210
O219        O  0.41343394  0.29621882  0.56461224    -0.73150
O220        O  0.41165840  0.20178080  0.93498785    -0.73180
O221        O  0.41870973  0.31460383  0.95209211    -0.73230
O222        O  0.42138302  0.18538142  0.54815622    -0.73280
O223        O  0.33185781  0.17961122  0.54572305    -0.73210
O224        O  0.32888601  0.31443325  0.95563552    -0.73190
O225        O  0.32287165  0.19799940  0.93503567    -0.73170
O226        O  0.32360392  0.29604964  0.56684523    -0.73230
Ni227      Ni  0.41894946  0.24942794  0.49974061     1.25410
Ni228      Ni  0.32370857  0.24698677  0.50096788     1.25360
C229        C  0.36854541  0.31549844  0.58690121     0.89030
C230        C  0.36778248  0.18046432  0.91333181     0.88970
C231        C  0.37419003  0.33730983  0.93650919     0.88990
C232        C  0.37818695  0.16007557  0.56423399     0.89160
C233        C  0.37209804  0.37758383  0.88175486    -0.01210
C234        C  0.37304104  0.37107070  0.62595386    -0.01210
O235        O  0.06330303  0.41904161  0.80315545    -0.73150
O236        O  0.43420212  0.41939797  0.69857981    -0.73180
O237        O  0.44317455  0.42533140  0.81453281    -0.73230
O238        O  0.05236239  0.42367224  0.68976161    -0.73280
O239        O  0.05109026  0.33688701  0.69291155    -0.73210
O240        O  0.44605360  0.33895343  0.81532272    -0.73190
O241        O  0.43620489  0.33185154  0.70053905    -0.73170
O242        O  0.05797939  0.33181010  0.80671772    -0.73230
Ni243      Ni  0.49817567  0.42506814  0.75171223     1.25410
Ni244      Ni  0.49764340  0.33242612  0.75366638     1.25360
C245        C  0.08213288  0.37421345  0.82343788     0.89030
C246        C  0.41424523  0.37404392  0.68021893     0.88970
C247        C  0.42508139  0.38164292  0.83670400     0.88990
C248        C  0.07129006  0.37967947  0.67018803     0.89160
C249        C  0.11914610  0.12737328  0.87991584    -0.01210
C250        C  0.12223295  0.37346993  0.87793039    -0.01210
C251        C  0.12237978  0.37675969  0.62459458    -0.01210
C252        C  0.12980434  0.12511657  0.63029433    -0.01210
O253        O  0.07872392  0.29916491  0.93986022    -0.73150
O254        O  0.08128627  0.19761794  0.56902278    -0.73180
O255        O  0.07400743  0.31343227  0.55452875    -0.73230
O256        O  0.07237873  0.18700608  0.95383984    -0.73280
O257        O  0.16233980  0.18635826  0.95551526    -0.73210
O258        O  0.16376087  0.31688714  0.54868659    -0.73190
O259        O  0.17143451  0.20223017  0.56798578    -0.73170
O260        O  0.16896761  0.29960614  0.93712252    -0.73230
Ni261      Ni  0.07363075  0.24931279  0.50468865     1.25410
Ni262      Ni  0.16933124  0.25117507  0.50241365     1.25360
C263        C  0.12419321  0.31820125  0.91701086     0.89030
C264        C  0.12801587  0.18080040  0.58985236     0.88970
C265        C  0.11861085  0.33754399  0.56931923     0.88990
C266        C  0.11684443  0.16587172  0.93557534     0.89160
C267        C  0.99718393  0.50701961  0.49936278    -0.01210
C268        C  0.24981931  0.25080550  0.74926867    -0.01210
C269        C  0.02374279  0.03350294  0.59177059     0.24880
C270        C  0.02530749  0.04170108  0.53636463    -0.23230
C271        C  0.06766578  0.07242960  0.51174621     0.19780
C272        C  0.10799893  0.09046459  0.54128769     0.24820
C273        C  0.10023882  0.08828760  0.59623924    -0.23170
C274        C  0.07102892  0.04442469  0.61615488     0.19720
F275        F  0.08957900  0.01262227  0.65592054    -0.13130
F276        F  0.98429510  0.50608153  0.61914859    -0.15500
F277        F  0.15482217  0.10839230  0.51761629    -0.15500
F278        F  0.07408805  0.07450026  0.95813865    -0.13130
C279        C  0.21351671  0.34358809  0.64694572     0.24880
C280        C  0.15698933  0.33726313  0.64937816    -0.23230
C281        C  0.13848261  0.28524308  0.66128541     0.19880
C282        C  0.17311163  0.25415080  0.68766107     0.24820
C283        C  0.21858590  0.27952853  0.71119250    -0.23170
C284        C  0.23984994  0.32582569  0.68903981     0.19720
F285        F  0.27853474  0.35637406  0.71220527    -0.13130
F286        F  0.23986849  0.35848360  0.60167264    -0.15500
F287        F  0.15569512  0.20580238  0.70210435    -0.15500
F288        F  0.08911612  0.26491734  0.64656298    -0.13130
C289        C  0.10978248  0.41529144  0.96795709     0.24880
C290        C  0.08823191  0.39886773  0.91854063    -0.23230
C291        C  0.03414833  0.41029321  0.90899226     0.19780
C292        C  0.02769513  0.46298294  0.91450082     0.24820
C293        C  0.04056280  0.48071975  0.96506066    -0.23170
C294        C  0.09020060  0.46180493  0.98667057     0.19720
F295        F  0.11614148  0.48376946  0.52838047    -0.13130
F296        F  0.15681667  0.39597656  0.98883401    -0.15500
F297        F  0.54042792  0.49525140  0.87274422    -0.15500
F298        F  0.99757877  0.37853672  0.93478100    -0.13130
C299        C  0.16404765  0.24374324  0.80377518     0.24880
C300        C  0.21523375  0.22269430  0.78757265    -0.23230
C301        C  0.24013126  0.18392489  0.81854950     0.19780
C302        C  0.21125324  0.16310265  0.85863485     0.24820
C303        C  0.15473207  0.16702784  0.85488815    -0.23170
C304        C  0.13540783  0.21758790  0.84089936     0.19720
F305        F  0.08649646  0.23762820  0.85766379    -0.13130
F306        F  0.13885898  0.28488289  0.78015520    -0.15500
F307        F  0.23597102  0.14276217  0.90208117    -0.15500
F308        F  0.28932401  0.16392439  0.80651946    -0.13130
C309        C  0.38607123  0.41542600  0.53749263     0.24880
C310        C  0.40772885  0.39584762  0.58493669    -0.23230
C311        C  0.46421864  0.38877308  0.58367235     0.19780
C312        C  0.49397359  0.42397593  0.55514301     0.24820
C313        C  0.46591601  0.46443405  0.52661117    -0.23170
C314        C  0.40820264  0.46206273  0.52453717     0.19720
F315        F  0.37395483  0.50177416  0.00964040    -0.13130
F316        F  0.33833361  0.39912563  0.51486932    -0.15500
F317        F  0.04650451  0.42687030  0.56917937    -0.15500
F318        F  0.48916678  0.34807113  0.60901788    -0.13130
C319        C  0.28174724  0.34071122  0.85744639     0.24880
C320        C  0.33838257  0.33764403  0.85583569    -0.23230
C321        C  0.35931317  0.28805182  0.84098249     0.19780
C322        C  0.33356686  0.26316446  0.80215998     0.24820
C323        C  0.28285958  0.28304033  0.78476033    -0.23170
C324        C  0.25646077  0.32329372  0.81390116     0.19720
F325        F  0.20878752  0.34559972  0.79950571    -0.13130
F326        F  0.25416078  0.36002476  0.90016301    -0.15500
F327        F  0.36022348  0.22240105  0.77985657    -0.15500
F328        F  0.40684114  0.26706905  0.85929511    -0.13130
C329        C  0.36002245  0.21260628  0.65754772     0.24880
C330        C  0.34307067  0.15999431  0.64783405    -0.23230
C331        C  0.28710036  0.15037678  0.65225306     0.19780
C332        C  0.26291944  0.16957169  0.69608652     0.24820
C333        C  0.28226520  0.21857218  0.71318892    -0.23170
C334        C  0.32684870  0.24309792  0.68638766     0.19720
F335        F  0.34523744  0.29168058  0.69839942    -0.13130
F336        F  0.40839406  0.23382637  0.64056869    -0.15500
F337        F  0.22286180  0.14141467  0.72104254    -0.15500
F338        F  0.25818202  0.14729463  0.60655744    -0.13130
C339        C  0.41214868  0.03963653  0.88444827     0.24880
C340        C  0.41285998  0.09485721  0.89070904    -0.23230
C341        C  0.46018010  0.11528590  0.91286541     0.19780
C342        C  0.46738928  0.09546496  0.96156449     0.24820
C343        C  0.46172169  0.03947030  0.96510930    -0.23170
C344        C  0.43209496  0.01208976  0.92481591     0.19720
F345        F  0.42548962  0.45879993  0.92361788    -0.13130
F346        F  0.38979468  0.01398804  0.84209444    -0.15500
F347        F  0.48516045  0.12905849  0.00020647    -0.15500
F348        F  0.48612937  0.16054672  0.89647988    -0.13130
O349        O  0.42767886  0.58790725  0.28944850    -0.73150
O350        O  0.06975938  0.58660164  0.20856750    -0.73180
O351        O  0.04510645  0.58116966  0.31713577    -0.73230
O352        O  0.45241089  0.57858426  0.18234893    -0.73280
O353        O  0.44868689  0.66489804  0.18603210    -0.73210
O354        O  0.05240556  0.66682996  0.30757317    -0.73190
O355        O  0.06072261  0.67153865  0.19353168    -0.73170
O356        O  0.43907896  0.67352889  0.30027668    -0.73230
Ni357      Ni  0.49882865  0.58033445  0.24943809     1.25410
Ni358      Ni  0.00016869  0.67225295  0.24690515     1.25360
C359        C  0.41058045  0.63184356  0.31250473     0.89030
C360        C  0.08687351  0.62868393  0.18243878     0.88970
C361        C  0.06792282  0.62462789  0.33409977     0.88990
C362        C  0.43160640  0.62144077  0.16258571     0.89160
C363        C  0.37150771  0.62894663  0.36753892    -0.01210
O364        O  0.29992172  0.56673924  0.41560592    -0.73150
O365        O  0.19564529  0.94149833  0.41603098    -0.73180
O366        O  0.31047746  0.95333366  0.42238573    -0.73230
O367        O  0.18196268  0.55423235  0.42153179    -0.73280
O368        O  0.17991775  0.55432096  0.33325580    -0.73210
O369        O  0.30796860  0.94837525  0.33426789    -0.73190
O370        O  0.18918103  0.94133621  0.32905906    -0.73170
O371        O  0.29806853  0.56376094  0.32718253    -0.73230
Ni372      Ni  0.24682893  0.00416799  0.42151785     1.25410
Ni373      Ni  0.24411214  0.00199282  0.32794592     1.25360
C374        C  0.31765758  0.58659751  0.36987234     0.89030
C375        C  0.17312823  0.91986242  0.37360509     0.88970
C376        C  0.33034321  0.93169074  0.37949862     0.88990
C377        C  0.15913310  0.57257157  0.37853770     0.89160
O378        O  0.31896573  0.54969852  0.16837245    -0.73150
O379        O  0.18674102  0.94769858  0.17169176    -0.73180
O380        O  0.30803802  0.93949635  0.17515623    -0.73230
O381        O  0.19854259  0.55940111  0.17632122    -0.73280
O382        O  0.20354775  0.56308916  0.08872597    -0.73210
O383        O  0.29940695  0.93673421  0.08885030    -0.73190
O384        O  0.18645588  0.95028136  0.08385961    -0.73170
O385        O  0.31673715  0.54822701  0.08020861    -0.73230
Ni386      Ni  0.25300117  0.99913352  0.17613710     1.25410
Ni387      Ni  0.25147259  0.99954734  0.08289165     1.25360
C388        C  0.34001218  0.56671502  0.12243509     0.89030
C389        C  0.16377975  0.93136182  0.12664476     0.88970
C390        C  0.32278462  0.91675750  0.13096184     0.88990
C391        C  0.18243677  0.58267684  0.13293711     0.89160
C392        C  0.37861424  0.62198384  0.11967965    -0.01210
O393        O  0.41342914  0.79622690  0.06461327    -0.73150
O394        O  0.41166319  0.70178623  0.43499121    -0.73180
O395        O  0.41870252  0.81460929  0.45209340    -0.73230
O396        O  0.42138820  0.68539116  0.04815985    -0.73280
O397        O  0.33186372  0.67961317  0.04572478    -0.73210
O398        O  0.32887960  0.81443608  0.45563849    -0.73190
O399        O  0.32287645  0.69800115  0.43503784    -0.73170
O400        O  0.32359940  0.79605157  0.06684707    -0.73230
Ni401      Ni  0.41894889  0.74943543  0.99974294     1.25410
Ni402      Ni  0.32370843  0.74698839  0.00097009     1.25360
C403        C  0.36853960  0.81550374  0.08690227     0.89030
C404        C  0.36778853  0.68046732  0.41333516     0.88970
C405        C  0.37418223  0.83731363  0.43651075     0.88990
C406        C  0.37819433  0.66008095  0.06423599     0.89160
C407        C  0.37208914  0.87758459  0.38175431    -0.01210
C408        C  0.37303210  0.87107519  0.12595610    -0.01210
O409        O  0.06329905  0.91903910  0.30315390    -0.73150
O410        O  0.43419438  0.91940131  0.19858192    -0.73180
O411        O  0.44316817  0.92533288  0.31453402    -0.73230
O412        O  0.05235500  0.92367239  0.18976188    -0.73280
O413        O  0.05108053  0.83688650  0.19290890    -0.73210
O414        O  0.44604573  0.83895505  0.31532164    -0.73190
O415        O  0.43619589  0.83185485  0.20053931    -0.73170
O416        O  0.05797455  0.83180696  0.30671302    -0.73230
Ni417      Ni  0.49816942  0.92506879  0.25171290     1.25410
Ni418      Ni  0.49763531  0.83242650  0.25366459     1.25360
C419        C  0.08212999  0.87420951  0.32343301     0.89030
C420        C  0.41423629  0.87404783  0.18022081     0.88970
C421        C  0.42507333  0.88164432  0.33670365     0.88990
C422        C  0.07128148  0.87967943  0.17018751     0.89160
C423        C  0.11915376  0.62737276  0.37992075    -0.01210
C424        C  0.12222751  0.87346576  0.37792760    -0.01210
C425        C  0.12237192  0.87676005  0.12459657    -0.01210
C426        C  0.12981144  0.62511288  0.13029743    -0.01210
O427        O  0.07872289  0.79916122  0.43986324    -0.73150
O428        O  0.08129094  0.69761426  0.06902671    -0.73180
O429        O  0.07400429  0.81342872  0.05453190    -0.73230
O430        O  0.07238483  0.68700262  0.45384465    -0.73280
O431        O  0.16234623  0.68635898  0.45551973    -0.73210
O432        O  0.16375763  0.81688842  0.04869049    -0.73190
O433        O  0.17143903  0.70223018  0.06798967    -0.73170
O434        O  0.16896619  0.79960686  0.43712535    -0.73230
Ni435      Ni  0.07363246  0.74930889  0.00469248     1.25410
Ni436      Ni  0.16933287  0.75117601  0.00241761     1.25360
C437        C  0.12419081  0.81819887  0.41701238     0.89030
C438        C  0.12802129  0.68079781  0.08985573     0.88970
C439        C  0.11860619  0.83754312  0.06932223     0.88990
C440        C  0.11685161  0.66587082  0.43557989     0.89160
C441        C  0.99717497  0.00702469  0.99936080    -0.01210
C442        C  0.24981937  0.75080272  0.24926597    -0.01210
C443        C  0.02374554  0.53349716  0.09177516     0.24880
C444        C  0.02531033  0.54169792  0.03636999    -0.23230
C445        C  0.06766636  0.57243142  0.01175335     0.19780
C446        C  0.10800168  0.59046179  0.04129359     0.24820
C447        C  0.10024368  0.58828343  0.09624463    -0.23170
C448        C  0.07103090  0.54442223  0.11616157     0.19720
F449        F  0.08958253  0.51261957  0.15592627    -0.13130
F450        F  0.98429208  0.00609025  0.11914684    -0.15500
F451        F  0.15482405  0.60838984  0.01762068    -0.15500
F452        F  0.07408672  0.57450804  0.45814576    -0.13130
C453        C  0.21351020  0.84359806  0.14695551     0.24880
C454        C  0.15698328  0.83726686  0.14938433    -0.23230
C455        C  0.13848046  0.78524475  0.16128884     0.19880
C456        C  0.17311464  0.75415075  0.18765635     0.24820
C457        C  0.21858666  0.77952792  0.21119059    -0.23170
C458        C  0.23984619  0.82583011  0.18904548     0.19720
F459        F  0.27852832  0.85637851  0.21221568    -0.13130
F460        F  0.23986077  0.85847949  0.10167714    -0.15500
F461        F  0.15570422  0.70579919  0.20209345    -0.15500
F462        F  0.08911508  0.76491648  0.14656641    -0.13130
C463        C  0.10976673  0.91528965  0.46794923     0.24880
C464        C  0.08822200  0.89886512  0.41853290    -0.23230
C465        C  0.03413545  0.91027236  0.40898348     0.19780
C466        C  0.02764771  0.96295190  0.41450917     0.24820
C467        C  0.04054480  0.98071770  0.46505184    -0.23170
C468        C  0.09018330  0.96180158  0.48665963     0.19720
F469        F  0.11613215  0.98376875  0.02836396    -0.13130
F470        F  0.15679964  0.89597627  0.48883039    -0.15500
F471        F  0.54020665  0.99524052  0.37271991    -0.15500
F472        F  0.99757625  0.87849124  0.43475129    -0.13130
C473        C  0.16404690  0.74373597  0.30377066     0.24880
C474        C  0.21523370  0.72268801  0.28756752    -0.23230
C475        C  0.24013434  0.68392072  0.31854611     0.19780
C476        C  0.21126029  0.66310377  0.35863724     0.24820
C477        C  0.15473917  0.66702821  0.35489379    -0.23170
C478        C  0.13541395  0.71758705  0.34090401     0.19720
F479        F  0.08650269  0.73762679  0.35766918    -0.13130
F480        F  0.13885327  0.78487216  0.28014907    -0.15500
F481        F  0.23598091  0.64276466  0.40208265    -0.15500
F482        F  0.28932871  0.66392230  0.30651703    -0.13130
C483        C  0.38606371  0.91544038  0.03750119     0.24880
C484        C  0.40772069  0.89585499  0.08494157    -0.23230
C485        C  0.46421101  0.88878000  0.08367589     0.19780
C486        C  0.49396616  0.92398177  0.05514476     0.24820
C487        C  0.46590808  0.96444280  0.02661688    -0.23170
C488        C  0.40819423  0.96208012  0.02455748     0.19720
F489        F  0.37394860  0.00179435  0.50966449    -0.13130
F490        F  0.33833062  0.89913963  0.01486929    -0.15500
F491        F  0.04649917  0.92687168  0.06917556    -0.15500
F492        F  0.48915899  0.84807609  0.10901809    -0.13130
C493        C  0.28174018  0.84070528  0.35744945     0.24880
C494        C  0.33837567  0.83764182  0.35583751    -0.23230
C495        C  0.35930899  0.78805051  0.34098518     0.19780
C496        C  0.33356626  0.76316343  0.30215983     0.24820
C497        C  0.28285726  0.78303660  0.28476092    -0.23170
C498        C  0.25645471  0.82328643  0.31390443     0.19720
F499        F  0.20877957  0.84558986  0.29951049    -0.13130
F500        F  0.25415283  0.86002235  0.40016391    -0.15500
F501        F  0.36022713  0.72240283  0.27985478    -0.15500
F502        F  0.40683838  0.76707121  0.35929800    -0.13130
C503        C  0.36002853  0.71260908  0.15755072     0.24880
C504        C  0.34307972  0.65999581  0.14783591    -0.23230
C505        C  0.28710985  0.65037546  0.15225296     0.19780
C506        C  0.26292540  0.66957010  0.19608424     0.24820
C507        C  0.28226708  0.71857193  0.21318622    -0.23170
C508        C  0.32684946  0.74309997  0.18638641     0.19720
F509        F  0.34523080  0.79168518  0.19839677    -0.13130
F510        F  0.40839927  0.73383261  0.14057292    -0.15500
F511        F  0.22286870  0.64141117  0.22103923    -0.15500
F512        F  0.25819352  0.64728580  0.10655665    -0.13130
C513        C  0.41216298  0.53963672  0.38444307     0.24880
C514        C  0.41286790  0.59485795  0.39071241    -0.23230
C515        C  0.46018303  0.61528713  0.41287642     0.19780
C516        C  0.46738772  0.59546041  0.46157357     0.24820
C517        C  0.46173445  0.53946368  0.46510576    -0.23170
C518        C  0.43212245  0.51208459  0.42480167     0.19720
F519        F  0.42545121  0.95880567  0.42364120    -0.13130
F520        F  0.38980564  0.51399124  0.34208900    -0.15500
F521        F  0.48515159  0.62904971  0.50022213    -0.15500
F522        F  0.48613675  0.66054665  0.39649406    -0.13130
O523        O  0.42767883  0.58790717  0.78944845    -0.73150
O524        O  0.06975935  0.58660168  0.70856744    -0.73180
O525        O  0.04510642  0.58116954  0.81713571    -0.73230
O526        O  0.45241087  0.57858434  0.68234886    -0.73280
O527        O  0.44868689  0.66489812  0.68603210    -0.73210
O528        O  0.05240549  0.66682986  0.80757322    -0.73190
O529        O  0.06072261  0.67153871  0.69353172    -0.73170
O530        O  0.43907890  0.67352882  0.80027667    -0.73230
Ni531      Ni  0.49882862  0.58033443  0.74943802     1.25410
Ni532      Ni  0.00016866  0.67225294  0.74690517     1.25360
C533        C  0.41058041  0.63184347  0.81250470     0.89030
C534        C  0.08687350  0.62868400  0.68243877     0.88970
C535        C  0.06792277  0.62462776  0.83409977     0.88990
C536        C  0.43160640  0.62144088  0.66258567     0.89160
C537        C  0.37150767  0.62894651  0.86753889    -0.01210
O538        O  0.29992169  0.56673912  0.91560591    -0.73150
O539        O  0.19564525  0.94149821  0.91603100    -0.73180
O540        O  0.31047744  0.95333353  0.92238574    -0.73230
O541        O  0.18196265  0.55423222  0.92153179    -0.73280
O542        O  0.17991770  0.55432080  0.83325581    -0.73210
O543        O  0.30796857  0.94837509  0.83426790    -0.73190
O544        O  0.18918101  0.94133605  0.82905908    -0.73170
O545        O  0.29806850  0.56376079  0.82718252    -0.73230
Ni546      Ni  0.24682891  0.00416786  0.92151786     1.25410
Ni547      Ni  0.24411211  0.00199267  0.82794593     1.25360
C548        C  0.31765754  0.58659737  0.86987233     0.89030
C549        C  0.17312820  0.91986229  0.87360512     0.88970
C550        C  0.33034318  0.93169060  0.87949863     0.88990
C551        C  0.15913306  0.57257142  0.87853771     0.89160
O552        O  0.31896574  0.54969865  0.66837242    -0.73150
O553        O  0.18674100  0.94769875  0.67169176    -0.73180
O554        O  0.30803800  0.93949644  0.67515625    -0.73230
O555        O  0.19854259  0.55940121  0.67632118    -0.73280
O556        O  0.20354776  0.56308925  0.58872594    -0.73210
O557        O  0.29940695  0.93673429  0.58885032    -0.73190
O558        O  0.18645590  0.95028146  0.58385960    -0.73170
O559        O  0.31673716  0.54822711  0.58020859    -0.73230
Ni560      Ni  0.25300118  0.99913364  0.67613709     1.25410
Ni561      Ni  0.25147260  0.99954744  0.58289164     1.25360
C562        C  0.34001219  0.56671515  0.62243507     0.89030
C563        C  0.16377974  0.93136196  0.62664476     0.88970
C564        C  0.32278461  0.91675759  0.63096186     0.88990
C565        C  0.18243678  0.58267694  0.63293708     0.89160
C566        C  0.37861426  0.62198398  0.61967960    -0.01210
O567        O  0.41342915  0.79622703  0.56461327    -0.73150
O568        O  0.41166315  0.70178609  0.93499121    -0.73180
O569        O  0.41870252  0.81460914  0.95209340    -0.73230
O570        O  0.42138824  0.68539132  0.54815984    -0.73280
O571        O  0.33186376  0.67961331  0.54572473    -0.73210
O572        O  0.32887960  0.81443593  0.95563853    -0.73190
O573        O  0.32287642  0.69800101  0.93503787    -0.73170
O574        O  0.32359941  0.79605170  0.56684705    -0.73230
Ni575      Ni  0.41894891  0.74943559  0.49974294     1.25410
Ni576      Ni  0.32370845  0.74698854  0.50097006     1.25360
C577        C  0.36853961  0.81550386  0.58690227     0.89030
C578        C  0.36778849  0.68046718  0.91333516     0.88970
C579        C  0.37418223  0.83731348  0.93651077     0.88990
C580        C  0.37819436  0.66008110  0.56423597     0.89160
C581        C  0.37208913  0.87758446  0.88175432    -0.01210
C582        C  0.37303210  0.87107528  0.62595612    -0.01210
O583        O  0.06329903  0.91903904  0.80315395    -0.73150
O584        O  0.43419436  0.91940134  0.69858199    -0.73180
O585        O  0.44316816  0.92533279  0.81453409    -0.73230
O586        O  0.05235498  0.92367247  0.68976193    -0.73280
O587        O  0.05108053  0.83688657  0.69290888    -0.73210
O588        O  0.44604568  0.83895495  0.81532159    -0.73190
O589        O  0.43619589  0.83185488  0.70053927    -0.73170
O590        O  0.05797451  0.83180690  0.80671301    -0.73230
Ni591      Ni  0.49816941  0.92506878  0.75171297     1.25410
Ni592      Ni  0.49763529  0.83242648  0.75366456     1.25360
C593        C  0.08212995  0.87420943  0.82343304     0.89030
C594        C  0.41423628  0.87404788  0.68022082     0.88970
C595        C  0.42507330  0.88164420  0.83670366     0.88990
C596        C  0.07128148  0.87967952  0.67018753     0.89160
C597        C  0.11915371  0.62737261  0.87992076    -0.01210
C598        C  0.12222746  0.87346565  0.87792763    -0.01210
C599        C  0.12237195  0.87676018  0.62459661    -0.01210
C600        C  0.12981145  0.62511298  0.63029741    -0.01210
O601        O  0.07872283  0.79916110  0.93986325    -0.73150
O602        O  0.08129097  0.69761439  0.56902671    -0.73180
O603        O  0.07400435  0.81342887  0.55453190    -0.73230
O604        O  0.07238479  0.68700247  0.95384465    -0.73280
O605        O  0.16234619  0.68635883  0.95551972    -0.73210
O606        O  0.16375771  0.81688855  0.54869055    -0.73190
O607        O  0.17143906  0.70223030  0.56798968    -0.73170
O608        O  0.16896613  0.79960671  0.93712532    -0.73230
Ni609      Ni  0.07363251  0.74930903  0.50469248     1.25410
Ni610      Ni  0.16933292  0.75117615  0.50241763     1.25360
C611        C  0.12419075  0.81819874  0.91701239     0.89030
C612        C  0.12802131  0.68079792  0.58985573     0.88970
C613        C  0.11860625  0.83754326  0.56932226     0.88990
C614        C  0.11685157  0.66587067  0.93557989     0.89160
C615        C  0.99717501  0.00702478  0.49936079    -0.01210
C616        C  0.24981928  0.75080266  0.74926600    -0.01210
C617        C  0.02374562  0.53349722  0.59177514     0.24880
C618        C  0.02531038  0.54169799  0.53636998    -0.23230
C619        C  0.06766640  0.57243151  0.51175332     0.19780
C620        C  0.10800171  0.59046191  0.54129356     0.24820
C621        C  0.10024371  0.58828353  0.59624460    -0.23170
C622        C  0.07103099  0.54442229  0.61616152     0.19720
F623        F  0.08958262  0.51261964  0.65592623    -0.13130
F624        F  0.98429218  0.00609031  0.61914684    -0.15500
F625        F  0.15482407  0.60838997  0.51762066    -0.15500
F626        F  0.07408670  0.57450792  0.95814579    -0.13130
C627        C  0.21351022  0.84359835  0.64695581     0.24880
C628        C  0.15698331  0.83726703  0.64938442    -0.23230
C629        C  0.13848052  0.78524490  0.66128882     0.19880
C630        C  0.17311470  0.75415087  0.68765626     0.24820
C631        C  0.21858663  0.77952801  0.71119068    -0.23170
C632        C  0.23984615  0.82583032  0.68904580     0.19720
F633        F  0.27852826  0.85637868  0.71221613    -0.13130
F634        F  0.23986087  0.85847945  0.60167737    -0.15500
F635        F  0.15570428  0.70579926  0.70209318    -0.15500
F636        F  0.08911516  0.76491662  0.64656634    -0.13130
C637        C  0.10976669  0.91528954  0.96794927     0.24880
C638        C  0.08822195  0.89886501  0.91853294    -0.23230
C639        C  0.03413540  0.91027226  0.90898351     0.19780
C640        C  0.02764769  0.96295181  0.91450919     0.24820
C641        C  0.04054476  0.98071760  0.96505186    -0.23170
C642        C  0.09018326  0.96180148  0.98665966     0.19720
F643        F  0.11613220  0.98376886  0.52836393    -0.13130
F644        F  0.15679960  0.89597617  0.98883041    -0.15500
F645        F  0.54020668  0.99524042  0.87271994    -0.15500
F646        F  0.99757621  0.87849116  0.93475135    -0.13130
C647        C  0.16404673  0.74373573  0.80377055     0.24880
C648        C  0.21523356  0.72268781  0.78756741    -0.23230
C649        C  0.24013421  0.68392049  0.81854596     0.19780
C650        C  0.21126022  0.66310361  0.85863717     0.24820
C651        C  0.15473911  0.66702806  0.85489379    -0.23170
C652        C  0.13541389  0.71758690  0.84090402     0.19720
F653        F  0.08650265  0.73762665  0.85766923    -0.13130
F654        F  0.13885303  0.78487187  0.78014894    -0.15500
F655        F  0.23598088  0.64276454  0.90208257    -0.15500
F656        F  0.28932857  0.66392204  0.80651684    -0.13130
C657        C  0.38606373  0.91544051  0.53750123     0.24880
C658        C  0.40772071  0.89585512  0.58494161    -0.23230
C659        C  0.46421102  0.88878011  0.58367592     0.19780
C660        C  0.49396619  0.92398185  0.55514475     0.24820
C661        C  0.46590812  0.96444289  0.52661687    -0.23170
C662        C  0.40819427  0.96208024  0.52455750     0.19720
F663        F  0.37394856  0.00179422  0.00966446    -0.13130
F664        F  0.33833066  0.89913976  0.51486930    -0.15500
F665        F  0.04649921  0.92687172  0.56917549    -0.15500
F666        F  0.48915900  0.84807619  0.60901810    -0.13130
C667        C  0.28174013  0.84070510  0.85744963     0.24880
C668        C  0.33837564  0.83764169  0.85583754    -0.23230
C669        C  0.35930896  0.78805038  0.84098520     0.19780
C670        C  0.33356614  0.76316325  0.80215993     0.24820
C671        C  0.28285712  0.78303641  0.78476109    -0.23170
C672        C  0.25645455  0.82328615  0.81390472     0.19720
F673        F  0.20877932  0.84558946  0.79951092    -0.13130
F674        F  0.25415285  0.86002226  0.90016410    -0.15500
F675        F  0.36022698  0.72240265  0.77985483    -0.15500
F676        F  0.40683837  0.76707109  0.85929797    -0.13130
C677        C  0.36002854  0.71260924  0.65755074     0.24880
C678        C  0.34307974  0.65999597  0.64783585    -0.23230
C679        C  0.28710988  0.65037563  0.65225280     0.19780
C680        C  0.26292537  0.66957021  0.69608407     0.24820
C681        C  0.28226703  0.71857199  0.71318617    -0.23170
C682        C  0.32684943  0.74310009  0.68638645     0.19720
F683        F  0.34523071  0.79168530  0.69839691    -0.13130
F684        F  0.40839930  0.73383278  0.64057300    -0.15500
F685        F  0.22286869  0.64141122  0.72103900    -0.15500
F686        F  0.25819359  0.64728580  0.60655648    -0.13130
C687        C  0.41216296  0.53963661  0.88444303     0.24880
C688        C  0.41286788  0.59485784  0.89071237    -0.23230
C689        C  0.46018301  0.61528702  0.91287636     0.19780
C690        C  0.46738771  0.59546031  0.96157352     0.24820
C691        C  0.46173441  0.53946359  0.96510575    -0.23170
C692        C  0.43212242  0.51208449  0.92480164     0.19720
F693        F  0.42545119  0.95880556  0.92364119    -0.13130
F694        F  0.38980562  0.51399112  0.84208896    -0.15500
F695        F  0.48515157  0.62904962  0.00022206    -0.15500
F696        F  0.48613671  0.66054655  0.89649401    -0.13130
O697        O  0.92767273  0.08790142  0.28944750    -0.73150
O698        O  0.56975061  0.08660240  0.20856159    -0.73180
O699        O  0.54510295  0.08116831  0.31713037    -0.73230
O700        O  0.95240067  0.07858007  0.18234811    -0.73280
O701        O  0.94867843  0.16489362  0.18602961    -0.73210
O702        O  0.55239683  0.16682985  0.30757007    -0.73190
O703        O  0.56071382  0.17153996  0.19352868    -0.73170
O704        O  0.93907010  0.17352391  0.30027221    -0.73230
Ni705      Ni  0.99882173  0.08033166  0.24943480     1.25410
Ni706      Ni  0.50015979  0.17225058  0.24690191     1.25360
C707        C  0.91057223  0.13183857  0.31250100     0.89030
C708        C  0.58686486  0.12868584  0.18243451     0.88970
C709        C  0.56791629  0.12462767  0.33409524     0.88990
C710        C  0.93159657  0.12143641  0.16258453     0.89160
C711        C  0.87149924  0.12894415  0.36753509    -0.01210
O712        O  0.79991080  0.06673813  0.41560173    -0.73150
O713        O  0.69565533  0.44149991  0.41603305    -0.73180
O714        O  0.81048927  0.45333458  0.42238898    -0.73230
O715        O  0.68195225  0.05423137  0.42152729    -0.73280
O716        O  0.67990789  0.05431944  0.33325126    -0.73210
O717        O  0.80797947  0.44837769  0.33427125    -0.73190
O718        O  0.68918982  0.44133912  0.32906169    -0.73170
O719        O  0.79805843  0.06375910  0.32717832    -0.73230
Ni720      Ni  0.74683990  0.50416904  0.42152147     1.25410
Ni721      Ni  0.74412230  0.50199495  0.32794969     1.25360
C722        C  0.81764730  0.08659598  0.36986816     0.89030
C723        C  0.67313627  0.41986525  0.37360740     0.88970
C724        C  0.83035482  0.43169236  0.37950149     0.88990
C725        C  0.65912370  0.07257103  0.37853296     0.89160
O726        O  0.81895393  0.04969917  0.16837452    -0.73150
O727        O  0.68675366  0.44769487  0.17169145    -0.73180
O728        O  0.80805011  0.43949379  0.17515417    -0.73230
O729        O  0.69853205  0.05940487  0.17632150    -0.73280
O730        O  0.70353936  0.06309176  0.08872623    -0.73210
O731        O  0.79942184  0.43673537  0.08884787    -0.73190
O732        O  0.68647010  0.45027819  0.08385970    -0.73170
O733        O  0.81672366  0.04822675  0.08021115    -0.73230
Ni734      Ni  0.75301344  0.49913100  0.17613572     1.25410
Ni735      Ni  0.75148535  0.49954650  0.08289030     1.25360
C736        C  0.84000010  0.06671401  0.12243673     0.89030
C737        C  0.66379199  0.43135913  0.12664441     0.88970
C738        C  0.82279680  0.41675580  0.13095936     0.88990
C739        C  0.68242856  0.08268063  0.13293662     0.89160
C740        C  0.87860412  0.12198035  0.11967907    -0.01210
O741        O  0.91343393  0.29621869  0.06461224    -0.73150
O742        O  0.91165844  0.20178094  0.43498784    -0.73180
O743        O  0.91870973  0.31460398  0.45209210    -0.73230
O744        O  0.92138299  0.18538127  0.04815622    -0.73280
O745        O  0.83185777  0.17961108  0.04572310    -0.73210
O746        O  0.82888601  0.31443340  0.45563548    -0.73190
O747        O  0.82287168  0.19799954  0.43503565    -0.73170
O748        O  0.82360391  0.29604952  0.06684525    -0.73230
Ni749      Ni  0.91894944  0.24942779  0.99974061     1.25410
Ni750      Ni  0.82370855  0.24698663  0.00096791     1.25360
C751        C  0.86854541  0.31549832  0.08690122     0.89030
C752        C  0.86778252  0.18046445  0.41333180     0.88970
C753        C  0.87419003  0.33730997  0.43650917     0.88990
C754        C  0.87818692  0.16007542  0.06423401     0.89160
C755        C  0.87209806  0.37758396  0.38175484    -0.01210
C756        C  0.87304104  0.37107060  0.12595384    -0.01210
O757        O  0.56330305  0.41904167  0.30315540    -0.73150
O758        O  0.93420214  0.41939794  0.19857975    -0.73180
O759        O  0.94317456  0.42533149  0.31453274    -0.73230
O760        O  0.55236240  0.42367217  0.18976155    -0.73280
O761        O  0.55109025  0.33688694  0.19291157    -0.73210
O762        O  0.94605366  0.33895352  0.31532277    -0.73190
O763        O  0.93620489  0.33185151  0.20053909    -0.73170
O764        O  0.55797943  0.33181016  0.30671773    -0.73230
Ni765      Ni  0.99817569  0.42506815  0.25171217     1.25410
Ni766      Ni  0.99764341  0.33242614  0.25366642     1.25360
C767        C  0.58213292  0.37421353  0.32343785     0.89030
C768        C  0.91424524  0.37404387  0.18021892     0.88970
C769        C  0.92508142  0.38164303  0.33670399     0.88990
C770        C  0.57129006  0.37967937  0.17018801     0.89160
C771        C  0.61914615  0.12737343  0.37991584    -0.01210
C772        C  0.62223300  0.37347004  0.37793036    -0.01210
C773        C  0.62237975  0.37675955  0.12459455    -0.01210
C774        C  0.62980433  0.12511647  0.13029435    -0.01210
O775        O  0.57872397  0.29916503  0.43986021    -0.73150
O776        O  0.58128624  0.19761782  0.06902278    -0.73180
O777        O  0.57400737  0.31343212  0.05452875    -0.73230
O778        O  0.57237877  0.18700622  0.45383984    -0.73280
O779        O  0.66233984  0.18635842  0.45551527    -0.73210
O780        O  0.66376079  0.31688701  0.04868653    -0.73190
O781        O  0.67143448  0.20223005  0.06798577    -0.73170
O782        O  0.66896767  0.29960629  0.43712255    -0.73230
Ni783      Ni  0.57363070  0.24931265  0.00468866     1.25410
Ni784      Ni  0.66933119  0.25117494  0.00241362     1.25360
C785        C  0.62419327  0.31820138  0.41701085     0.89030
C786        C  0.62801585  0.18080029  0.08985237     0.88970
C787        C  0.61861079  0.33754385  0.06931921     0.88990
C788        C  0.61684448  0.16587187  0.43557534     0.89160
C789        C  0.49718388  0.50701952  0.99936279    -0.01210
C790        C  0.74981939  0.25080556  0.24926864    -0.01210
C791        C  0.52374271  0.03350288  0.09177061     0.24880
C792        C  0.52530743  0.04170100  0.03636465    -0.23230
C793        C  0.56766574  0.07242950  0.01174624     0.19780
C794        C  0.60799891  0.09046447  0.04128772     0.24820
C795        C  0.60023879  0.08828750  0.09623927    -0.23170
C796        C  0.57102883  0.04442463  0.11615493     0.19720
F797        F  0.58957890  0.01262220  0.15592058    -0.13130
F798        F  0.48429500  0.50608148  0.11914859    -0.15500
F799        F  0.65482215  0.10839216  0.01761631    -0.15500
F800        F  0.57408807  0.07450038  0.45813862    -0.13130
C801        C  0.71351669  0.34358780  0.14694542     0.24880
C802        C  0.65698930  0.33726295  0.14937807    -0.23230
C803        C  0.63848255  0.28524293  0.16128543     0.19880
C804        C  0.67311157  0.25415068  0.18766115     0.24820
C805        C  0.71858592  0.27952844  0.21119241    -0.23170
C806        C  0.73984998  0.32582548  0.18903950     0.19720
F807        F  0.77853480  0.35637390  0.21220483    -0.13130
F808        F  0.73986839  0.35848365  0.10167241    -0.15500
F809        F  0.65569506  0.20580231  0.20210462    -0.15500
F810        F  0.58911604  0.26491720  0.14656304    -0.13130
C811        C  0.60978252  0.41529155  0.46795706     0.24880
C812        C  0.58823196  0.39886784  0.41854060    -0.23230
C813        C  0.53414837  0.41029331  0.40899222     0.19780
C814        C  0.52769515  0.46298303  0.41450081     0.24820
C815        C  0.54056283  0.48071985  0.46506063    -0.23170
C816        C  0.59020064  0.46180504  0.48667053     0.19720
F817        F  0.61614143  0.48376936  0.02838051    -0.13130
F818        F  0.65681670  0.39597666  0.48883399    -0.15500
F819        F  0.04042790  0.49525150  0.37274419    -0.15500
F820        F  0.49757881  0.37853680  0.43478094    -0.13130
C821        C  0.66404782  0.24374348  0.30377530     0.24880
C822        C  0.71523388  0.22269449  0.28757276    -0.23230
C823        C  0.74013138  0.18392512  0.31854965     0.19780
C824        C  0.71125331  0.16310282  0.35863492     0.24820
C825        C  0.65473213  0.16702799  0.35488815    -0.23170
C826        C  0.63540790  0.21758805  0.34089936     0.19720
F827        F  0.58649650  0.23762834  0.35766374    -0.13130
F828        F  0.63885921  0.28488318  0.28015533    -0.15500
F829        F  0.73597104  0.14276229  0.40208125    -0.15500
F830        F  0.78932415  0.16392465  0.30651965    -0.13130
C831        C  0.88607121  0.41542587  0.03749259     0.24880
C832        C  0.90772883  0.39584750  0.08493665    -0.23230
C833        C  0.96421863  0.38877296  0.08367232     0.19780
C834        C  0.99397356  0.42397586  0.05514302     0.24820
C835        C  0.96591597  0.46443396  0.02661118    -0.23170
C836        C  0.90820260  0.46206261  0.02453714     0.19720
F837        F  0.87395487  0.50177428  0.50964042    -0.13130
F838        F  0.83833358  0.39912550  0.01486931    -0.15500
F839        F  0.54650447  0.42687026  0.06917944    -0.15500
F840        F  0.98916677  0.34807103  0.10901787    -0.13130
C841        C  0.78174728  0.34071140  0.35744621     0.24880
C842        C  0.83838261  0.33764416  0.35583565    -0.23230
C843        C  0.85931320  0.28805195  0.34098247     0.19780
C844        C  0.83356697  0.26316464  0.30215987     0.24820
C845        C  0.78285971  0.28304052  0.28476016    -0.23170
C846        C  0.75646093  0.32329401  0.31390087     0.19720
F847        F  0.70878778  0.34560012  0.29950528    -0.13130
F848        F  0.75416076  0.36002486  0.40016282    -0.15500
F849        F  0.86022363  0.22240123  0.27985651    -0.15500
F850        F  0.90684114  0.26706917  0.35929514    -0.13130
C851        C  0.86002243  0.21260613  0.15754770     0.24880
C852        C  0.84307065  0.15999416  0.14783411    -0.23230
C853        C  0.78710033  0.15037662  0.15225321     0.19780
C854        C  0.76291948  0.16957158  0.19608669     0.24820
C855        C  0.78226525  0.21857212  0.21318897    -0.23170
C856        C  0.82684872  0.24309780  0.18638761     0.19720
F857        F  0.84523753  0.29168046  0.19839928    -0.13130
F858        F  0.90839403  0.23382621  0.14056861    -0.15500
F859        F  0.72286181  0.14141462  0.22104276    -0.15500
F860        F  0.75818196  0.14729463  0.10655760    -0.13130
C861        C  0.91214870  0.03963665  0.38444831     0.24880
C862        C  0.91286000  0.09485733  0.39070908    -0.23230
C863        C  0.96018012  0.11528602  0.41286546     0.19780
C864        C  0.96738930  0.09546506  0.46156454     0.24820
C865        C  0.96172173  0.03947040  0.46510932    -0.23170
C866        C  0.93209499  0.01208987  0.42481593     0.19720
F867        F  0.92548965  0.45880003  0.42361789    -0.13130
F868        F  0.88979470  0.01398816  0.34209448    -0.15500
F869        F  0.98516048  0.12905858  0.50020652    -0.15500
F870        F  0.98612941  0.16054683  0.39647992    -0.13130
O871        O  0.92767270  0.08790134  0.78944745    -0.73150
O872        O  0.56975058  0.08660244  0.70856153    -0.73180
O873        O  0.54510292  0.08116820  0.81713030    -0.73230
O874        O  0.95240065  0.07858015  0.68234804    -0.73280
O875        O  0.94867843  0.16489370  0.68602961    -0.73210
O876        O  0.55239676  0.16682975  0.80757011    -0.73190
O877        O  0.56071383  0.17154003  0.69352872    -0.73170
O878        O  0.93907005  0.17352384  0.80027220    -0.73230
Ni879      Ni  0.99882170  0.08033164  0.74943473     1.25410
Ni880      Ni  0.50015977  0.17225057  0.74690194     1.25360
C881        C  0.91057218  0.13183848  0.81250097     0.89030
C882        C  0.58686486  0.12868591  0.68243450     0.88970
C883        C  0.56791624  0.12462754  0.83409523     0.88990
C884        C  0.93159657  0.12143651  0.66258449     0.89160
C885        C  0.87149920  0.12894403  0.86753507    -0.01210
O886        O  0.79991077  0.06673800  0.91560172    -0.73150
O887        O  0.69565529  0.44149979  0.91603308    -0.73180
O888        O  0.81048925  0.45333446  0.92238898    -0.73230
O889        O  0.68195222  0.05423124  0.92152730    -0.73280
O890        O  0.67990785  0.05431928  0.83325127    -0.73210
O891        O  0.80797944  0.44837754  0.83427126    -0.73190
O892        O  0.68918980  0.44133896  0.82906171    -0.73170
O893        O  0.79805840  0.06375895  0.82717832    -0.73230
Ni894      Ni  0.74683987  0.50416891  0.92152147     1.25410
Ni895      Ni  0.74412227  0.50199479  0.82794969     1.25360
C896        C  0.81764726  0.08659585  0.86986815     0.89030
C897        C  0.67313624  0.41986512  0.87360743     0.88970
C898        C  0.83035479  0.43169223  0.87950149     0.88990
C899        C  0.65912365  0.07257088  0.87853297     0.89160
O900        O  0.81895394  0.04969929  0.66837450    -0.73150
O901        O  0.68675364  0.44769504  0.67169144    -0.73180
O902        O  0.80805009  0.43949387  0.67515419    -0.73230
O903        O  0.69853206  0.05940497  0.67632146    -0.73280
O904        O  0.70353937  0.06309185  0.58872619    -0.73210
O905        O  0.79942184  0.43673545  0.58884789    -0.73190
O906        O  0.68647012  0.45027828  0.58385969    -0.73170
O907        O  0.81672367  0.04822685  0.58021112    -0.73230
Ni908      Ni  0.75301344  0.49913112  0.67613570     1.25410
Ni909      Ni  0.75148537  0.49954659  0.58289029     1.25360
C910        C  0.84000012  0.06671414  0.62243670     0.89030
C911        C  0.66379199  0.43135927  0.62664440     0.88970
C912        C  0.82279679  0.41675588  0.63095939     0.88990
C913        C  0.68242857  0.08268072  0.63293659     0.89160
C914        C  0.87860414  0.12198049  0.61967902    -0.01210
O915        O  0.91343394  0.29621882  0.56461224    -0.73150
O916        O  0.91165840  0.20178080  0.93498785    -0.73180
O917        O  0.91870973  0.31460383  0.95209210    -0.73230
O918        O  0.92138302  0.18538142  0.54815622    -0.73280
O919        O  0.83185781  0.17961122  0.54572305    -0.73210
O920        O  0.82888601  0.31443325  0.95563552    -0.73190
O921        O  0.82287165  0.19799940  0.93503567    -0.73170
O922        O  0.82360392  0.29604964  0.56684523    -0.73230
Ni923      Ni  0.91894946  0.24942794  0.49974061     1.25410
Ni924      Ni  0.82370857  0.24698677  0.50096787     1.25360
C925        C  0.86854541  0.31549844  0.58690121     0.89030
C926        C  0.86778248  0.18046432  0.91333181     0.88970
C927        C  0.87419003  0.33730983  0.93650919     0.88990
C928        C  0.87818695  0.16007557  0.56423398     0.89160
C929        C  0.87209804  0.37758383  0.88175486    -0.01210
C930        C  0.87304104  0.37107070  0.62595386    -0.01210
O931        O  0.56330303  0.41904161  0.80315545    -0.73150
O932        O  0.93420212  0.41939797  0.69857981    -0.73180
O933        O  0.94317455  0.42533140  0.81453281    -0.73230
O934        O  0.55236239  0.42367224  0.68976161    -0.73280
O935        O  0.55109026  0.33688701  0.69291155    -0.73210
O936        O  0.94605360  0.33895343  0.81532272    -0.73190
O937        O  0.93620489  0.33185154  0.70053905    -0.73170
O938        O  0.55797939  0.33181010  0.80671772    -0.73230
Ni939      Ni  0.99817567  0.42506814  0.75171223     1.25410
Ni940      Ni  0.99764340  0.33242612  0.75366638     1.25360
C941        C  0.58213289  0.37421345  0.82343788     0.89030
C942        C  0.91424523  0.37404392  0.68021893     0.88970
C943        C  0.92508139  0.38164292  0.83670400     0.88990
C944        C  0.57129006  0.37967947  0.67018804     0.89160
C945        C  0.61914610  0.12737328  0.87991584    -0.01210
C946        C  0.62223295  0.37346993  0.87793039    -0.01210
C947        C  0.62237978  0.37675969  0.62459458    -0.01210
C948        C  0.62980434  0.12511657  0.63029433    -0.01210
O949        O  0.57872392  0.29916491  0.93986022    -0.73150
O950        O  0.58128627  0.19761794  0.56902278    -0.73180
O951        O  0.57400743  0.31343227  0.55452875    -0.73230
O952        O  0.57237873  0.18700608  0.95383984    -0.73280
O953        O  0.66233980  0.18635826  0.95551526    -0.73210
O954        O  0.66376087  0.31688714  0.54868659    -0.73190
O955        O  0.67143451  0.20223017  0.56798578    -0.73170
O956        O  0.66896761  0.29960614  0.93712252    -0.73230
Ni957      Ni  0.57363075  0.24931279  0.50468865     1.25410
Ni958      Ni  0.66933124  0.25117507  0.50241365     1.25360
C959        C  0.62419321  0.31820125  0.91701086     0.89030
C960        C  0.62801587  0.18080040  0.58985236     0.88970
C961        C  0.61861085  0.33754399  0.56931923     0.88990
C962        C  0.61684444  0.16587172  0.93557534     0.89160
C963        C  0.49718393  0.50701961  0.49936278    -0.01210
C964        C  0.74981931  0.25080550  0.74926867    -0.01210
C965        C  0.52374279  0.03350294  0.59177059     0.24880
C966        C  0.52530749  0.04170108  0.53636463    -0.23230
C967        C  0.56766578  0.07242960  0.51174622     0.19780
C968        C  0.60799893  0.09046459  0.54128769     0.24820
C969        C  0.60023882  0.08828760  0.59623924    -0.23170
C970        C  0.57102891  0.04442469  0.61615488     0.19720
F971        F  0.58957900  0.01262227  0.65592055    -0.13130
F972        F  0.48429510  0.50608153  0.61914859    -0.15500
F973        F  0.65482217  0.10839230  0.51761629    -0.15500
F974        F  0.57408805  0.07450026  0.95813865    -0.13130
C975        C  0.71351671  0.34358809  0.64694572     0.24880
C976        C  0.65698933  0.33726313  0.64937816    -0.23230
C977        C  0.63848261  0.28524308  0.66128541     0.19880
C978        C  0.67311163  0.25415080  0.68766107     0.24820
C979        C  0.71858590  0.27952853  0.71119250    -0.23170
C980        C  0.73984994  0.32582569  0.68903981     0.19720
F981        F  0.77853474  0.35637406  0.71220527    -0.13130
F982        F  0.73986849  0.35848360  0.60167264    -0.15500
F983        F  0.65569512  0.20580238  0.70210435    -0.15500
F984        F  0.58911612  0.26491734  0.64656298    -0.13130
C985        C  0.60978248  0.41529144  0.96795709     0.24880
C986        C  0.58823191  0.39886773  0.91854063    -0.23230
C987        C  0.53414833  0.41029321  0.90899226     0.19780
C988        C  0.52769513  0.46298293  0.91450083     0.24820
C989        C  0.54056280  0.48071975  0.96506066    -0.23170
C990        C  0.59020060  0.46180493  0.98667057     0.19720
F991        F  0.61614148  0.48376947  0.52838047    -0.13130
F992        F  0.65681667  0.39597656  0.98883401    -0.15500
F993        F  0.04042792  0.49525140  0.87274422    -0.15500
F994        F  0.49757877  0.37853671  0.93478100    -0.13130
C995        C  0.66404765  0.24374324  0.80377518     0.24880
C996        C  0.71523374  0.22269430  0.78757265    -0.23230
C997        C  0.74013126  0.18392489  0.81854950     0.19780
C998        C  0.71125325  0.16310265  0.85863485     0.24820
C999        C  0.65473207  0.16702784  0.85488815    -0.23170
C1000       C  0.63540784  0.21758790  0.84089936     0.19720
F1001       F  0.58649646  0.23762820  0.85766380    -0.13130
F1002       F  0.63885897  0.28488289  0.78015520    -0.15500
F1003       F  0.73597102  0.14276217  0.90208117    -0.15500
F1004       F  0.78932401  0.16392438  0.80651946    -0.13130
C1005       C  0.88607123  0.41542600  0.53749263     0.24880
C1006       C  0.90772885  0.39584762  0.58493669    -0.23230
C1007       C  0.96421864  0.38877308  0.58367235     0.19780
C1008       C  0.99397359  0.42397594  0.55514301     0.24820
C1009       C  0.96591601  0.46443405  0.52661117    -0.23170
C1010       C  0.90820264  0.46206273  0.52453717     0.19720
F1011       F  0.87395483  0.50177416  0.00964039    -0.13130
F1012       F  0.83833361  0.39912563  0.51486932    -0.15500
F1013       F  0.54650451  0.42687030  0.56917937    -0.15500
F1014       F  0.98916678  0.34807113  0.60901788    -0.13130
C1015       C  0.78174724  0.34071122  0.85744639     0.24880
C1016       C  0.83838257  0.33764403  0.85583569    -0.23230
C1017       C  0.85931317  0.28805182  0.84098249     0.19780
C1018       C  0.83356686  0.26316446  0.80215998     0.24820
C1019       C  0.78285958  0.28304033  0.78476033    -0.23170
C1020       C  0.75646077  0.32329372  0.81390116     0.19720
F1021       F  0.70878752  0.34559972  0.79950571    -0.13130
F1022       F  0.75416078  0.36002476  0.90016301    -0.15500
F1023       F  0.86022348  0.22240105  0.77985657    -0.15500
F1024       F  0.90684114  0.26706905  0.85929511    -0.13130
C1025       C  0.86002245  0.21260628  0.65754772     0.24880
C1026       C  0.84307067  0.15999431  0.64783405    -0.23230
C1027       C  0.78710036  0.15037679  0.65225306     0.19780
C1028       C  0.76291944  0.16957169  0.69608652     0.24820
C1029       C  0.78226520  0.21857218  0.71318892    -0.23170
C1030       C  0.82684870  0.24309792  0.68638766     0.19720
F1031       F  0.84523744  0.29168058  0.69839942    -0.13130
F1032       F  0.90839406  0.23382637  0.64056869    -0.15500
F1033       F  0.72286180  0.14141467  0.72104254    -0.15500
F1034       F  0.75818202  0.14729463  0.60655744    -0.13130
C1035       C  0.91214868  0.03963653  0.88444827     0.24880
C1036       C  0.91285998  0.09485721  0.89070904    -0.23230
C1037       C  0.96018010  0.11528590  0.91286541     0.19780
C1038       C  0.96738928  0.09546496  0.96156449     0.24820
C1039       C  0.96172169  0.03947030  0.96510930    -0.23170
C1040       C  0.93209496  0.01208976  0.92481591     0.19720
F1041       F  0.92548962  0.45879993  0.92361787    -0.13130
F1042       F  0.88979468  0.01398804  0.84209444    -0.15500
F1043       F  0.98516045  0.12905849  0.00020646    -0.15500
F1044       F  0.98612937  0.16054673  0.89647987    -0.13130
O1045       O  0.92767886  0.58790725  0.28944850    -0.73150
O1046       O  0.56975938  0.58660164  0.20856750    -0.73180
O1047       O  0.54510645  0.58116966  0.31713577    -0.73230
O1048       O  0.95241089  0.57858427  0.18234893    -0.73280
O1049       O  0.94868689  0.66489804  0.18603210    -0.73210
O1050       O  0.55240556  0.66682996  0.30757317    -0.73190
O1051       O  0.56072261  0.67153865  0.19353168    -0.73170
O1052       O  0.93907896  0.67352889  0.30027668    -0.73230
Ni1053     Ni  0.99882865  0.58033445  0.24943809     1.25410
Ni1054     Ni  0.50016869  0.67225295  0.24690515     1.25360
C1055       C  0.91058045  0.63184357  0.31250473     0.89030
C1056       C  0.58687351  0.62868393  0.18243878     0.88970
C1057       C  0.56792282  0.62462789  0.33409978     0.88990
C1058       C  0.93160640  0.62144078  0.16258571     0.89160
C1059       C  0.87150771  0.62894663  0.36753891    -0.01210
O1060       O  0.79992172  0.56673924  0.41560592    -0.73150
O1061       O  0.69564529  0.94149833  0.41603098    -0.73180
O1062       O  0.81047746  0.95333366  0.42238573    -0.73230
O1063       O  0.68196268  0.55423235  0.42153179    -0.73280
O1064       O  0.67991775  0.55432096  0.33325580    -0.73210
O1065       O  0.80796860  0.94837525  0.33426789    -0.73190
O1066       O  0.68918103  0.94133621  0.32905906    -0.73170
O1067       O  0.79806853  0.56376094  0.32718253    -0.73230
Ni1068     Ni  0.74682893  0.00416799  0.42151785     1.25410
Ni1069     Ni  0.74411214  0.00199282  0.32794592     1.25360
C1070       C  0.81765758  0.58659751  0.36987234     0.89030
C1071       C  0.67312823  0.91986242  0.37360509     0.88970
C1072       C  0.83034321  0.93169074  0.37949862     0.88990
C1073       C  0.65913310  0.57257157  0.37853771     0.89160
O1074       O  0.81896573  0.54969852  0.16837244    -0.73150
O1075       O  0.68674102  0.94769858  0.17169176    -0.73180
O1076       O  0.80803802  0.93949635  0.17515623    -0.73230
O1077       O  0.69854259  0.55940111  0.17632122    -0.73280
O1078       O  0.70354775  0.56308916  0.08872597    -0.73210
O1079       O  0.79940695  0.93673421  0.08885030    -0.73190
O1080       O  0.68645588  0.95028136  0.08385961    -0.73170
O1081       O  0.81673715  0.54822701  0.08020861    -0.73230
Ni1082     Ni  0.75300117  0.99913352  0.17613710     1.25410
Ni1083     Ni  0.75147259  0.99954734  0.08289165     1.25360
C1084       C  0.84001218  0.56671502  0.12243509     0.89030
C1085       C  0.66377975  0.93136182  0.12664477     0.88970
C1086       C  0.82278462  0.91675750  0.13096184     0.88990
C1087       C  0.68243677  0.58267684  0.13293711     0.89160
C1088       C  0.87861424  0.62198384  0.11967965    -0.01210
O1089       O  0.91342914  0.79622690  0.06461327    -0.73150
O1090       O  0.91166319  0.70178623  0.43499121    -0.73180
O1091       O  0.91870252  0.81460929  0.45209340    -0.73230
O1092       O  0.92138820  0.68539116  0.04815984    -0.73280
O1093       O  0.83186372  0.67961317  0.04572478    -0.73210
O1094       O  0.82887960  0.81443608  0.45563849    -0.73190
O1095       O  0.82287645  0.69800116  0.43503784    -0.73170
O1096       O  0.82359940  0.79605157  0.06684707    -0.73230
Ni1097     Ni  0.91894889  0.74943544  0.99974294     1.25410
Ni1098     Ni  0.82370843  0.74698840  0.00097008     1.25360
C1099       C  0.86853960  0.81550374  0.08690227     0.89030
C1100       C  0.86778853  0.68046732  0.41333516     0.88970
C1101       C  0.87418223  0.83731363  0.43651075     0.88990
C1102       C  0.87819433  0.66008095  0.06423599     0.89160
C1103       C  0.87208915  0.87758459  0.38175431    -0.01210
C1104       C  0.87303210  0.87107519  0.12595610    -0.01210
O1105       O  0.56329905  0.91903910  0.30315390    -0.73150
O1106       O  0.93419438  0.91940131  0.19858192    -0.73180
O1107       O  0.94316817  0.92533288  0.31453402    -0.73230
O1108       O  0.55235500  0.92367239  0.18976188    -0.73280
O1109       O  0.55108053  0.83688650  0.19290890    -0.73210
O1110       O  0.94604573  0.83895505  0.31532164    -0.73190
O1111       O  0.93619589  0.83185485  0.20053931    -0.73170
O1112       O  0.55797455  0.83180696  0.30671302    -0.73230
Ni1113     Ni  0.99816942  0.92506879  0.25171290     1.25410
Ni1114     Ni  0.99763531  0.83242650  0.25366459     1.25360
C1115       C  0.58212999  0.87420951  0.32343301     0.89030
C1116       C  0.91423629  0.87404783  0.18022081     0.88970
C1117       C  0.92507333  0.88164432  0.33670365     0.88990
C1118       C  0.57128148  0.87967943  0.17018751     0.89160
C1119       C  0.61915376  0.62737276  0.37992076    -0.01210
C1120       C  0.62222751  0.87346576  0.37792760    -0.01210
C1121       C  0.62237192  0.87676005  0.12459657    -0.01210
C1122       C  0.62981144  0.62511288  0.13029743    -0.01210
O1123       O  0.57872289  0.79916122  0.43986324    -0.73150
O1124       O  0.58129094  0.69761426  0.06902671    -0.73180
O1125       O  0.57400429  0.81342871  0.05453191    -0.73230
O1126       O  0.57238483  0.68700262  0.45384465    -0.73280
O1127       O  0.66234623  0.68635898  0.45551973    -0.73210
O1128       O  0.66375763  0.81688842  0.04869049    -0.73190
O1129       O  0.67143903  0.70223018  0.06798967    -0.73170
O1130       O  0.66896619  0.79960686  0.43712535    -0.73230
Ni1131     Ni  0.57363246  0.74930889  0.00469248     1.25410
Ni1132     Ni  0.66933287  0.75117601  0.00241761     1.25360
C1133       C  0.62419081  0.81819887  0.41701238     0.89030
C1134       C  0.62802129  0.68079781  0.08985573     0.88970
C1135       C  0.61860619  0.83754312  0.06932223     0.88990
C1136       C  0.61685161  0.66587082  0.43557989     0.89160
C1137       C  0.49717497  0.00702469  0.99936080    -0.01210
C1138       C  0.74981937  0.75080272  0.24926597    -0.01210
C1139       C  0.52374554  0.53349716  0.09177516     0.24880
C1140       C  0.52531033  0.54169791  0.03636999    -0.23230
C1141       C  0.56766636  0.57243142  0.01175335     0.19780
C1142       C  0.60800168  0.59046179  0.04129359     0.24820
C1143       C  0.60024368  0.58828343  0.09624463    -0.23170
C1144       C  0.57103090  0.54442223  0.11616157     0.19720
F1145       F  0.58958253  0.51261957  0.15592627    -0.13130
F1146       F  0.48429208  0.00609025  0.11914684    -0.15500
F1147       F  0.65482405  0.60838984  0.01762068    -0.15500
F1148       F  0.57408672  0.57450804  0.45814576    -0.13130
C1149       C  0.71351020  0.84359806  0.14695551     0.24880
C1150       C  0.65698328  0.83726686  0.14938433    -0.23230
C1151       C  0.63848046  0.78524475  0.16128884     0.19880
C1152       C  0.67311464  0.75415075  0.18765634     0.24820
C1153       C  0.71858666  0.77952792  0.21119059    -0.23170
C1154       C  0.73984619  0.82583011  0.18904549     0.19720
F1155       F  0.77852832  0.85637851  0.21221569    -0.13130
F1156       F  0.73986077  0.85847949  0.10167714    -0.15500
F1157       F  0.65570422  0.70579919  0.20209344    -0.15500
F1158       F  0.58911508  0.76491648  0.14656641    -0.13130
C1159       C  0.60976673  0.91528965  0.46794924     0.24880
C1160       C  0.58822200  0.89886512  0.41853290    -0.23230
C1161       C  0.53413545  0.91027236  0.40898348     0.19780
C1162       C  0.52764771  0.96295190  0.41450917     0.24820
C1163       C  0.54054480  0.98071770  0.46505184    -0.23170
C1164       C  0.59018330  0.96180158  0.48665963     0.19720
F1165       F  0.61613215  0.98376875  0.02836396    -0.13130
F1166       F  0.65679964  0.89597627  0.48883039    -0.15500
F1167       F  0.04020665  0.99524052  0.37271991    -0.15500
F1168       F  0.49757626  0.87849124  0.43475129    -0.13130
C1169       C  0.66404690  0.74373597  0.30377066     0.24880
C1170       C  0.71523370  0.72268801  0.28756752    -0.23230
C1171       C  0.74013434  0.68392072  0.31854611     0.19780
C1172       C  0.71126029  0.66310377  0.35863724     0.24820
C1173       C  0.65473917  0.66702821  0.35489379    -0.23170
C1174       C  0.63541395  0.71758705  0.34090401     0.19720
F1175       F  0.58650269  0.73762679  0.35766918    -0.13130
F1176       F  0.63885327  0.78487215  0.28014906    -0.15500
F1177       F  0.73598091  0.64276466  0.40208265    -0.15500
F1178       F  0.78932871  0.66392230  0.30651703    -0.13130
C1179       C  0.88606371  0.91544038  0.03750119     0.24880
C1180       C  0.90772069  0.89585499  0.08494157    -0.23230
C1181       C  0.96421101  0.88878000  0.08367589     0.19780
C1182       C  0.99396616  0.92398177  0.05514476     0.24820
C1183       C  0.96590808  0.96444280  0.02661688    -0.23170
C1184       C  0.90819423  0.96208012  0.02455748     0.19720
F1185       F  0.87394861  0.00179436  0.50966449    -0.13130
F1186       F  0.83833062  0.89913963  0.01486928    -0.15500
F1187       F  0.54649917  0.92687168  0.06917556    -0.15500
F1188       F  0.98915899  0.84807609  0.10901809    -0.13130
C1189       C  0.78174018  0.84070528  0.35744945     0.24880
C1190       C  0.83837567  0.83764183  0.35583751    -0.23230
C1191       C  0.85930899  0.78805051  0.34098518     0.19780
C1192       C  0.83356626  0.76316343  0.30215983     0.24820
C1193       C  0.78285726  0.78303660  0.28476092    -0.23170
C1194       C  0.75645471  0.82328643  0.31390443     0.19720
F1195       F  0.70877957  0.84558986  0.29951049    -0.13130
F1196       F  0.75415283  0.86002235  0.40016391    -0.15500
F1197       F  0.86022713  0.72240283  0.27985478    -0.15500
F1198       F  0.90683838  0.76707121  0.35929800    -0.13130
C1199       C  0.86002852  0.71260908  0.15755072     0.24880
C1200       C  0.84307972  0.65999581  0.14783591    -0.23230
C1201       C  0.78710985  0.65037546  0.15225296     0.19780
C1202       C  0.76292541  0.66957010  0.19608424     0.24820
C1203       C  0.78226708  0.71857193  0.21318622    -0.23170
C1204       C  0.82684946  0.74309997  0.18638641     0.19720
F1205       F  0.84523080  0.79168518  0.19839677    -0.13130
F1206       F  0.90839927  0.73383261  0.14057292    -0.15500
F1207       F  0.72286870  0.64141117  0.22103923    -0.15500
F1208       F  0.75819352  0.64728580  0.10655665    -0.13130
C1209       C  0.91216298  0.53963672  0.38444307     0.24880
C1210       C  0.91286790  0.59485795  0.39071241    -0.23230
C1211       C  0.96018303  0.61528713  0.41287642     0.19780
C1212       C  0.96738773  0.59546041  0.46157357     0.24820
C1213       C  0.96173445  0.53946369  0.46510576    -0.23170
C1214       C  0.93212245  0.51208459  0.42480167     0.19720
F1215       F  0.92545121  0.95880567  0.42364120    -0.13130
F1216       F  0.88980564  0.51399124  0.34208900    -0.15500
F1217       F  0.98515159  0.62904971  0.50022212    -0.15500
F1218       F  0.98613675  0.66054665  0.39649406    -0.13130
O1219       O  0.92767883  0.58790717  0.78944845    -0.73150
O1220       O  0.56975935  0.58660168  0.70856744    -0.73180
O1221       O  0.54510642  0.58116954  0.81713571    -0.73230
O1222       O  0.95241087  0.57858434  0.68234885    -0.73280
O1223       O  0.94868689  0.66489812  0.68603210    -0.73210
O1224       O  0.55240549  0.66682986  0.80757322    -0.73190
O1225       O  0.56072262  0.67153871  0.69353172    -0.73170
O1226       O  0.93907890  0.67352882  0.80027667    -0.73230
Ni1227     Ni  0.99882862  0.58033443  0.74943802     1.25410
Ni1228     Ni  0.50016866  0.67225294  0.74690517     1.25360
C1229       C  0.91058041  0.63184347  0.81250470     0.89030
C1230       C  0.58687350  0.62868399  0.68243877     0.88970
C1231       C  0.56792277  0.62462776  0.83409977     0.88990
C1232       C  0.93160640  0.62144088  0.66258567     0.89160
C1233       C  0.87150767  0.62894651  0.86753889    -0.01210
O1234       O  0.79992169  0.56673912  0.91560591    -0.73150
O1235       O  0.69564525  0.94149821  0.91603100    -0.73180
O1236       O  0.81047744  0.95333353  0.92238574    -0.73230
O1237       O  0.68196265  0.55423222  0.92153179    -0.73280
O1238       O  0.67991770  0.55432080  0.83325581    -0.73210
O1239       O  0.80796857  0.94837509  0.83426790    -0.73190
O1240       O  0.68918101  0.94133605  0.82905908    -0.73170
O1241       O  0.79806850  0.56376079  0.82718252    -0.73230
Ni1242     Ni  0.74682891  0.00416786  0.92151786     1.25410
Ni1243     Ni  0.74411211  0.00199267  0.82794593     1.25360
C1244       C  0.81765755  0.58659737  0.86987233     0.89030
C1245       C  0.67312820  0.91986229  0.87360512     0.88970
C1246       C  0.83034319  0.93169060  0.87949863     0.88990
C1247       C  0.65913306  0.57257142  0.87853771     0.89160
O1248       O  0.81896574  0.54969865  0.66837242    -0.73150
O1249       O  0.68674100  0.94769875  0.67169176    -0.73180
O1250       O  0.80803800  0.93949644  0.67515625    -0.73230
O1251       O  0.69854259  0.55940121  0.67632118    -0.73280
O1252       O  0.70354775  0.56308925  0.58872594    -0.73210
O1253       O  0.79940695  0.93673429  0.58885032    -0.73190
O1254       O  0.68645590  0.95028146  0.58385960    -0.73170
O1255       O  0.81673716  0.54822711  0.58020859    -0.73230
Ni1256     Ni  0.75300118  0.99913364  0.67613709     1.25410
Ni1257     Ni  0.75147260  0.99954744  0.58289164     1.25360
C1258       C  0.84001219  0.56671515  0.62243506     0.89030
C1259       C  0.66377974  0.93136196  0.62664476     0.88970
C1260       C  0.82278461  0.91675759  0.63096186     0.88990
C1261       C  0.68243678  0.58267694  0.63293708     0.89160
C1262       C  0.87861425  0.62198398  0.61967960    -0.01210
O1263       O  0.91342915  0.79622703  0.56461327    -0.73150
O1264       O  0.91166315  0.70178609  0.93499121    -0.73180
O1265       O  0.91870252  0.81460914  0.95209340    -0.73230
O1266       O  0.92138824  0.68539132  0.54815984    -0.73280
O1267       O  0.83186376  0.67961331  0.54572473    -0.73210
O1268       O  0.82887961  0.81443594  0.95563853    -0.73190
O1269       O  0.82287642  0.69800101  0.93503787    -0.73170
O1270       O  0.82359941  0.79605170  0.56684705    -0.73230
Ni1271     Ni  0.91894891  0.74943559  0.49974293     1.25410
Ni1272     Ni  0.82370845  0.74698854  0.50097005     1.25360
C1273       C  0.86853961  0.81550386  0.58690227     0.89030
C1274       C  0.86778849  0.68046718  0.91333516     0.88970
C1275       C  0.87418223  0.83731348  0.93651077     0.88990
C1276       C  0.87819436  0.66008110  0.56423597     0.89160
C1277       C  0.87208913  0.87758446  0.88175432    -0.01210
C1278       C  0.87303210  0.87107529  0.62595612    -0.01210
O1279       O  0.56329903  0.91903904  0.80315395    -0.73150
O1280       O  0.93419436  0.91940134  0.69858199    -0.73180
O1281       O  0.94316816  0.92533279  0.81453409    -0.73230
O1282       O  0.55235498  0.92367247  0.68976194    -0.73280
O1283       O  0.55108053  0.83688657  0.69290889    -0.73210
O1284       O  0.94604568  0.83895495  0.81532159    -0.73190
O1285       O  0.93619589  0.83185488  0.70053927    -0.73170
O1286       O  0.55797451  0.83180690  0.80671302    -0.73230
Ni1287     Ni  0.99816941  0.92506878  0.75171297     1.25410
Ni1288     Ni  0.99763529  0.83242648  0.75366456     1.25360
C1289       C  0.58212995  0.87420943  0.82343304     0.89030
C1290       C  0.91423628  0.87404789  0.68022082     0.88970
C1291       C  0.92507330  0.88164420  0.83670366     0.88990
C1292       C  0.57128148  0.87967952  0.67018753     0.89160
C1293       C  0.61915371  0.62737261  0.87992076    -0.01210
C1294       C  0.62222746  0.87346565  0.87792763    -0.01210
C1295       C  0.62237195  0.87676018  0.62459661    -0.01210
C1296       C  0.62981145  0.62511298  0.63029741    -0.01210
O1297       O  0.57872283  0.79916110  0.93986325    -0.73150
O1298       O  0.58129097  0.69761439  0.56902671    -0.73180
O1299       O  0.57400435  0.81342887  0.55453190    -0.73230
O1300       O  0.57238479  0.68700247  0.95384465    -0.73280
O1301       O  0.66234619  0.68635883  0.95551972    -0.73210
O1302       O  0.66375771  0.81688855  0.54869055    -0.73190
O1303       O  0.67143906  0.70223030  0.56798968    -0.73170
O1304       O  0.66896613  0.79960671  0.93712532    -0.73230
Ni1305     Ni  0.57363251  0.74930903  0.50469248     1.25410
Ni1306     Ni  0.66933292  0.75117615  0.50241763     1.25360
C1307       C  0.62419075  0.81819874  0.91701239     0.89030
C1308       C  0.62802131  0.68079792  0.58985573     0.88970
C1309       C  0.61860625  0.83754326  0.56932226     0.88990
C1310       C  0.61685157  0.66587067  0.93557989     0.89160
C1311       C  0.49717501  0.00702477  0.49936079    -0.01210
C1312       C  0.74981928  0.75080266  0.74926600    -0.01210
C1313       C  0.52374562  0.53349722  0.59177514     0.24880
C1314       C  0.52531038  0.54169799  0.53636998    -0.23230
C1315       C  0.56766640  0.57243151  0.51175332     0.19780
C1316       C  0.60800171  0.59046191  0.54129356     0.24820
C1317       C  0.60024371  0.58828353  0.59624460    -0.23170
C1318       C  0.57103098  0.54442229  0.61616152     0.19720
F1319       F  0.58958262  0.51261964  0.65592623    -0.13130
F1320       F  0.48429218  0.00609030  0.61914684    -0.15500
F1321       F  0.65482407  0.60838997  0.51762066    -0.15500
F1322       F  0.57408670  0.57450792  0.95814579    -0.13130
C1323       C  0.71351022  0.84359835  0.64695581     0.24880
C1324       C  0.65698331  0.83726703  0.64938442    -0.23230
C1325       C  0.63848052  0.78524490  0.66128882     0.19880
C1326       C  0.67311470  0.75415087  0.68765626     0.24820
C1327       C  0.71858663  0.77952801  0.71119068    -0.23170
C1328       C  0.73984615  0.82583032  0.68904580     0.19720
F1329       F  0.77852826  0.85637868  0.71221613    -0.13130
F1330       F  0.73986087  0.85847945  0.60167737    -0.15500
F1331       F  0.65570429  0.70579926  0.70209318    -0.15500
F1332       F  0.58911516  0.76491662  0.64656634    -0.13130
C1333       C  0.60976669  0.91528954  0.96794927     0.24880
C1334       C  0.58822195  0.89886501  0.91853294    -0.23230
C1335       C  0.53413540  0.91027226  0.90898351     0.19780
C1336       C  0.52764769  0.96295181  0.91450919     0.24820
C1337       C  0.54054476  0.98071760  0.96505186    -0.23170
C1338       C  0.59018326  0.96180148  0.98665966     0.19720
F1339       F  0.61613220  0.98376886  0.52836393    -0.13130
F1340       F  0.65679960  0.89597617  0.98883041    -0.15500
F1341       F  0.04020668  0.99524042  0.87271994    -0.15500
F1342       F  0.49757621  0.87849116  0.93475135    -0.13130
C1343       C  0.66404673  0.74373573  0.80377055     0.24880
C1344       C  0.71523356  0.72268781  0.78756741    -0.23230
C1345       C  0.74013421  0.68392049  0.81854596     0.19780
C1346       C  0.71126022  0.66310361  0.85863717     0.24820
C1347       C  0.65473911  0.66702806  0.85489379    -0.23170
C1348       C  0.63541389  0.71758690  0.84090402     0.19720
F1349       F  0.58650265  0.73762665  0.85766923    -0.13130
F1350       F  0.63885303  0.78487187  0.78014894    -0.15500
F1351       F  0.73598088  0.64276454  0.90208257    -0.15500
F1352       F  0.78932857  0.66392204  0.80651683    -0.13130
C1353       C  0.88606373  0.91544051  0.53750123     0.24880
C1354       C  0.90772071  0.89585512  0.58494161    -0.23230
C1355       C  0.96421102  0.88878012  0.58367592     0.19780
C1356       C  0.99396619  0.92398185  0.55514475     0.24820
C1357       C  0.96590812  0.96444289  0.52661687    -0.23170
C1358       C  0.90819427  0.96208024  0.52455750     0.19720
F1359       F  0.87394856  0.00179423  0.00966446    -0.13130
F1360       F  0.83833066  0.89913976  0.51486930    -0.15500
F1361       F  0.54649921  0.92687172  0.56917549    -0.15500
F1362       F  0.98915900  0.84807619  0.60901810    -0.13130
C1363       C  0.78174013  0.84070510  0.85744963     0.24880
C1364       C  0.83837564  0.83764169  0.85583754    -0.23230
C1365       C  0.85930896  0.78805038  0.84098520     0.19780
C1366       C  0.83356614  0.76316325  0.80215993     0.24820
C1367       C  0.78285712  0.78303641  0.78476109    -0.23170
C1368       C  0.75645455  0.82328615  0.81390472     0.19720
F1369       F  0.70877932  0.84558946  0.79951092    -0.13130
F1370       F  0.75415285  0.86002226  0.90016410    -0.15500
F1371       F  0.86022698  0.72240265  0.77985483    -0.15500
F1372       F  0.90683837  0.76707109  0.85929797    -0.13130
C1373       C  0.86002854  0.71260924  0.65755074     0.24880
C1374       C  0.84307974  0.65999597  0.64783585    -0.23230
C1375       C  0.78710987  0.65037563  0.65225280     0.19780
C1376       C  0.76292537  0.66957021  0.69608407     0.24820
C1377       C  0.78226703  0.71857199  0.71318617    -0.23170
C1378       C  0.82684943  0.74310009  0.68638645     0.19720
F1379       F  0.84523071  0.79168531  0.69839691    -0.13130
F1380       F  0.90839930  0.73383278  0.64057300    -0.15500
F1381       F  0.72286869  0.64141122  0.72103900    -0.15500
F1382       F  0.75819359  0.64728579  0.60655648    -0.13130
C1383       C  0.91216296  0.53963661  0.88444303     0.24880
C1384       C  0.91286788  0.59485784  0.89071236    -0.23230
C1385       C  0.96018301  0.61528702  0.91287636     0.19780
C1386       C  0.96738771  0.59546031  0.96157352     0.24820
C1387       C  0.96173441  0.53946359  0.96510574    -0.23170
C1388       C  0.93212242  0.51208449  0.92480164     0.19720
F1389       F  0.92545119  0.95880556  0.92364119    -0.13130
F1390       F  0.88980562  0.51399112  0.84208896    -0.15500
F1391       F  0.98515157  0.62904962  0.00022206    -0.15500
F1392       F  0.98613671  0.66054656  0.89649401    -0.13130
loop_ 
_geom_bond_atom_site_label_1 
_geom_bond_atom_site_label_2 
_geom_bond_distance 
_geom_bond_site_symmetry_2 
_ccdc_geom_bond_type 
O1           Ni9   2.002       .  S
O1           C11   1.311       .  A
O2         Ni705   2.003   1_455  S
O2           C12   1.303       .  A
O3         Ni705   2.036   1_455  S
O3           C13   1.292       .  A
O4           Ni9   2.025       .  S
O4           C14   1.289       .  A
O5         Ni706   1.983       .  S
O5           C14   1.303       .  A
O6          Ni10   1.988       .  S
O6           C13   1.306       .  A
O7          Ni10   1.978       .  S
O7           C12   1.281       .  A
O8         Ni706   1.987       .  S
O8           C11   1.285       .  A
Ni9         O698   2.003       .  S
Ni9         O699   2.036       .  S
Ni9        Ni706   2.304       .  S
Ni10        O701   1.983   1_455  S
Ni10        O704   1.987   1_455  S
Ni10       Ni705   2.304   1_455  S
C11          C15   1.664       .  S
C12          C78   1.664       .  S
C13          C75   1.698       .  S
C14          C44   1.682       .  S
C15          C26   1.681       .  S
C15          C56   1.725       .  S
C15         C166   1.448       .  S
O16        Ni372   2.029       .  S
O16          C26   1.312       .  A
O17         Ni24   2.003       .  S
O17          C27   1.310       .  A
O18         Ni24   2.012       .  S
O18          C28   1.290       .  A
O19        Ni372   2.023       .  S
O19          C29   1.296       .  A
O20        Ni373   2.050       .  S
O20          C29   1.316       .  A
O21         Ni25   2.068       .  S
O21          C28   1.324       .  A
O22         Ni25   2.017       .  S
O22          C27   1.290       .  A
O23        Ni373   2.023       .  S
O23          C26   1.300       .  A
Ni24        O364   2.029       .  S
Ni24        O367   2.023       .  S
Ni24        Ni25   2.333       .  S
Ni25        O368   2.050       .  S
Ni25        O371   2.023       .  S
C27          C76   1.696       .  S
C28          C59   1.701       .  S
C29          C75   1.688       .  S
O30        Ni386   2.046   1_545  S
O30          C40   1.320       .  A
O31         Ni38   2.061       .  S
O31          C41   1.321       .  A
O32         Ni38   2.013       .  S
O32          C42   1.289       .  A
O33        Ni386   2.016   1_545  S
O33          C43   1.293       .  A
O34        Ni387   1.985   1_545  S
O34          C43   1.309       .  A
O35         Ni39   1.972       .  S
O35          C42   1.299       .  A
O36         Ni39   2.000       .  S
O36          C41   1.286       .  A
O37        Ni387   1.997   1_545  S
O37          C40   1.284       .  A
Ni38        O378   2.046       .  S
Ni38        O381   2.016       .  S
Ni38        Ni39   2.324       .  S
Ni39        O382   1.985       .  S
Ni39        O385   1.997       .  S
C40          C44   1.669       .  S
C41          C77   1.695       .  S
C42          C60   1.685       .  S
C43          C78   1.672       .  S
C44          C58   1.679       .  S
C44         C156   1.466       .  S
O45         Ni53   2.001   1_554  S
O45          C55   1.316       .  A
O46        Ni227   2.015       .  S
O46          C56   1.311       .  A
O47        Ni227   2.019       .  S
O47          C57   1.290       .  A
O48         Ni53   2.009   1_554  S
O48          C58   1.285       .  A
O49         Ni54   2.035       .  S
O49          C58   1.319       .  A
O50        Ni228   2.035       .  S
O50          C57   1.325       .  A
O51        Ni228   2.051       .  S
O51          C56   1.295       .  A
O52         Ni54   2.051       .  S
O52          C55   1.298       .  A
Ni53        O220   2.015       .  S
Ni53        O221   2.019       .  S
Ni53        Ni54   2.319   1_556  S
Ni54        O224   2.035   1_554  S
Ni54        O225   2.051   1_554  S
C55          C60   1.702       .  S
C57          C59   1.698       .  S
C59          C73   1.706       .  S
C59         C146   1.445       .  S
C60          C72   1.691       .  S
C60         C136   1.457       .  S
O61        Ni765   2.053   1_455  S
O61          C71   1.318       .  A
O62         Ni69   2.056       .  S
O62          C72   1.316       .  A
O63         Ni69   2.052       .  S
O63          C73   1.299       .  A
O64        Ni765   2.023   1_455  S
O64          C74   1.292       .  A
O65        Ni766   1.991   1_455  S
O65          C74   1.304       .  A
O66         Ni70   1.984       .  S
O66          C73   1.301       .  A
O67         Ni70   2.005       .  S
O67          C72   1.293       .  A
O68        Ni766   1.984   1_455  S
O68          C71   1.282       .  A
Ni69        O757   2.053       .  S
Ni69        O760   2.023       .  S
Ni69        Ni70   2.321       .  S
Ni70        O761   1.991       .  S
Ni70        O764   1.984       .  S
C71          C76   1.678       .  S
C74          C77   1.680       .  S
C75          C92   1.690       .  S
C75         C129   1.451       .  S
C76          C89   1.694       .  S
C76         C116   1.452       .  S
C77          C91   1.694       .  S
C77         C106   1.445       .  S
C78          C90   1.722       .  S
C78          C99   1.446       .  S
O79        Ni261   2.044       .  S
O79          C89   1.326       .  A
O80         Ni87   2.071       .  S
O80          C90   1.325       .  A
O81         Ni87   2.031       .  S
O81          C91   1.295       .  A
O82        Ni261   2.011       .  S
O82          C92   1.288       .  A
O83        Ni262   2.008       .  S
O83          C92   1.318       .  A
O84         Ni88   2.015       .  S
O84          C91   1.319       .  A
O85         Ni88   2.044       .  S
O85          C90   1.298       .  A
O86        Ni262   2.029       .  S
O86          C89   1.293       .  A
Ni87        O253   2.044   1_554  S
Ni87        O256   2.011   1_554  S
Ni87        Ni88   2.330       .  S
Ni88        O257   2.008   1_554  S
Ni88        O260   2.029   1_554  S
C93         C444   1.441   1_656  S
C93         C293   1.508   1_655  S
C93         C835   1.469   1_556  S
C93        C1387   1.468       .  S
C94         C109   1.419       .  S
C94         C126   1.447       .  S
C94         C149   1.443       .  S
C94         C159   1.443       .  S
C95          C96   1.396       .  A
C95         C100   1.332       .  A
C95         F450   1.356   1_455  S
C96         C441   1.441   1_454  S
C96          C97   1.418       .  A
C97          C98   1.310       .  A
C97         F278   1.344   1_554  S
C98          C99   1.382       .  A
C98         F103   1.353       .  S
C99         C100   1.394       .  A
C100        F101   1.353       .  S
F102        C443   1.356   1_655  S
F104        C271   1.344       .  S
C105        C106   1.385       .  A
C105        C110   1.313       .  A
C105        F112   1.345       .  S
C106        C107   1.407       .  A
C107        C108   1.329       .  A
C107        F114   1.355       .  S
C108        C109   1.405       .  A
C108        F113   1.329       .  S
C109        C110   1.380       .  A
C110        F111   1.343       .  S
C115        C116   1.403       .  A
C115        C120   1.344       .  A
C115        F122   1.354       .  S
C116        C117   1.372       .  A
C117        C118   1.337       .  A
C117        F124   1.349   1_455  S
C118        C119   1.374       .  A
C118        F819   1.350       .  S
C119        C267   1.508   1_455  S
C119        C120   1.411       .  A
C120        F295   1.337       .  S
F121        C294   1.337   1_554  S
F123        C814   1.350       .  S
C125        C126   1.412       .  A
C125        C130   1.325       .  A
C125        F132   1.341       .  S
C126        C127   1.386       .  A
C127        C128   1.322       .  A
C127        F134   1.333       .  S
C128        C129   1.384       .  A
C128        F133   1.344       .  S
C129        C130   1.399       .  A
C130        F131   1.358       .  S
C135        C136   1.389       .  A
C135        C140   1.322       .  A
C135        F142   1.356       .  S
C136        C137   1.388       .  A
C137        C138   1.338       .  A
C137        F144   1.350       .  S
C138        C139   1.420       .  A
C138        F839   1.330       .  S
C139        C789   1.469   1_554  S
C139        C140   1.407       .  A
C140        F315   1.356       .  S
F141        C314   1.356       .  S
F143        C834   1.330   1_455  S
C145        C146   1.381       .  A
C145        C150   1.324       .  A
C145        F152   1.346       .  S
C146        C147   1.395       .  A
C147        C148   1.312       .  A
C147        F154   1.356       .  S
C148        C149   1.406       .  A
C148        F153   1.333       .  S
C149        C150   1.399       .  A
C150        F151   1.343       .  S
C155        C156   1.400       .  A
C155        C160   1.323       .  A
C155        F162   1.353       .  S
C156        C157   1.385       .  A
C157        C158   1.328       .  A
C157        F164   1.345       .  S
C158        C159   1.381       .  A
C158        F163   1.348       .  S
C159        C160   1.407       .  A
C160        F161   1.329       .  S
C165        C166   1.392       .  A
C165        C170   1.317       .  A
C165        F172   1.352       .  S
C166        C167   1.377       .  A
C167        C168   1.324       .  A
C167        F174   1.356       .  S
C168        C169   1.411       .  A
C168        F173   1.351       .  S
C169       C1311   1.468       .  S
C169        C170   1.415       .  A
C170        F519   1.344   1_545  S
F171        C518   1.344       .  S
O175       Ni183   2.002       .  S
O175        C185   1.311       .  A
O176       Ni879   2.003   1_455  S
O176        C186   1.303       .  A
O177       Ni879   2.036   1_455  S
O177        C187   1.292       .  A
O178       Ni183   2.025       .  S
O178        C188   1.289       .  A
O179       Ni880   1.983       .  S
O179        C188   1.303       .  A
O180       Ni184   1.988       .  S
O180        C187   1.306       .  A
O181       Ni184   1.978       .  S
O181        C186   1.281       .  A
O182       Ni880   1.987       .  S
O182        C185   1.285       .  A
Ni183       O872   2.003       .  S
Ni183       O873   2.036       .  S
Ni183      Ni880   2.304       .  S
Ni184       O875   1.983   1_455  S
Ni184       O878   1.987   1_455  S
Ni184      Ni879   2.304   1_455  S
C185        C189   1.664       .  S
C186        C252   1.664       .  S
C187        C249   1.698       .  S
C188        C218   1.682       .  S
C189        C200   1.681       .  S
C189        C230   1.725       .  S
C189        C340   1.448       .  S
O190       Ni546   2.029       .  S
O190        C200   1.312       .  A
O191       Ni198   2.003       .  S
O191        C201   1.310       .  A
O192       Ni198   2.012       .  S
O192        C202   1.290       .  A
O193       Ni546   2.023       .  S
O193        C203   1.296       .  A
O194       Ni547   2.050       .  S
O194        C203   1.316       .  A
O195       Ni199   2.068       .  S
O195        C202   1.324       .  A
O196       Ni199   2.017       .  S
O196        C201   1.290       .  A
O197       Ni547   2.023       .  S
O197        C200   1.300       .  A
Ni198       O538   2.029       .  S
Ni198       O541   2.023       .  S
Ni198      Ni199   2.333       .  S
Ni199       O542   2.050       .  S
Ni199       O545   2.023       .  S
C201        C250   1.696       .  S
C202        C233   1.701       .  S
C203        C249   1.688       .  S
O204       Ni560   2.046   1_545  S
O204        C214   1.320       .  A
O205       Ni212   2.061       .  S
O205        C215   1.321       .  A
O206       Ni212   2.013       .  S
O206        C216   1.289       .  A
O207       Ni560   2.016   1_545  S
O207        C217   1.293       .  A
O208       Ni561   1.985   1_545  S
O208        C217   1.309       .  A
O209       Ni213   1.972       .  S
O209        C216   1.299       .  A
O210       Ni213   2.000       .  S
O210        C215   1.286       .  A
O211       Ni561   1.997   1_545  S
O211        C214   1.284       .  A
Ni212       O552   2.046       .  S
Ni212       O555   2.016       .  S
Ni212      Ni213   2.324       .  S
Ni213       O556   1.985       .  S
Ni213       O559   1.997       .  S
C214        C218   1.669       .  S
C215        C251   1.695       .  S
C216        C234   1.685       .  S
C217        C252   1.672       .  S
C218        C232   1.679       .  S
C218        C330   1.466       .  S
O219       Ni227   2.001       .  S
O219        C229   1.316       .  A
O220        C230   1.311       .  A
O221        C231   1.290       .  A
O222       Ni227   2.009       .  S
O222        C232   1.285       .  A
O223       Ni228   2.035       .  S
O223        C232   1.319       .  A
O224        C231   1.325       .  A
O225        C230   1.295       .  A
O226       Ni228   2.051       .  S
O226        C229   1.298       .  A
Ni227      Ni228   2.319       .  S
C229        C234   1.702       .  S
C231        C233   1.698       .  S
C233        C247   1.706       .  S
C233        C320   1.445       .  S
C234        C246   1.691       .  S
C234        C310   1.457       .  S
O235       Ni939   2.053   1_455  S
O235        C245   1.318       .  A
O236       Ni243   2.056       .  S
O236        C246   1.316       .  A
O237       Ni243   2.052       .  S
O237        C247   1.299       .  A
O238       Ni939   2.023   1_455  S
O238        C248   1.292       .  A
O239       Ni940   1.991   1_455  S
O239        C248   1.304       .  A
O240       Ni244   1.984       .  S
O240        C247   1.301       .  A
O241       Ni244   2.005       .  S
O241        C246   1.293       .  A
O242       Ni940   1.984   1_455  S
O242        C245   1.282       .  A
Ni243       O931   2.053       .  S
Ni243       O934   2.023       .  S
Ni243      Ni244   2.321       .  S
Ni244       O935   1.991       .  S
Ni244       O938   1.984       .  S
C245        C250   1.678       .  S
C248        C251   1.680       .  S
C249        C266   1.690       .  S
C249        C303   1.451       .  S
C250        C263   1.694       .  S
C250        C290   1.452       .  S
C251        C265   1.694       .  S
C251        C280   1.445       .  S
C252        C264   1.722       .  S
C252        C273   1.446       .  S
O253        C263   1.326       .  A
O254       Ni261   2.071       .  S
O254        C264   1.325       .  A
O255       Ni261   2.031       .  S
O255        C265   1.295       .  A
O256        C266   1.288       .  A
O257        C266   1.318       .  A
O258       Ni262   2.015       .  S
O258        C265   1.319       .  A
O259       Ni262   2.044       .  S
O259        C264   1.298       .  A
O260        C263   1.293       .  A
Ni261      Ni262   2.330       .  S
C267        C618   1.441   1_655  S
C267       C1009   1.469       .  S
C267       C1213   1.468       .  S
C268        C283   1.419       .  S
C268        C300   1.447       .  S
C268        C323   1.443       .  S
C268        C333   1.443       .  S
C269        C270   1.396       .  A
C269        C274   1.332       .  A
C269        F624   1.356   1_455  S
C270        C615   1.441   1_455  S
C270        C271   1.418       .  A
C271        C272   1.310       .  A
C272        C273   1.382       .  A
C272        F277   1.353       .  S
C273        C274   1.394       .  A
C274        F275   1.353       .  S
F276        C617   1.356   1_655  S
C279        C280   1.385       .  A
C279        C284   1.313       .  A
C279        F286   1.345       .  S
C280        C281   1.407       .  A
C281        C282   1.329       .  A
C281        F288   1.355       .  S
C282        C283   1.405       .  A
C282        F287   1.329       .  S
C283        C284   1.380       .  A
C284        F285   1.343       .  S
C289        C290   1.403       .  A
C289        C294   1.344       .  A
C289        F296   1.354       .  S
C290        C291   1.372       .  A
C291        C292   1.337       .  A
C291        F298   1.349   1_455  S
C292        C293   1.374       .  A
C292        F993   1.350       .  S
C293        C294   1.411       .  A
F297        C988   1.350       .  S
C299        C300   1.412       .  A
C299        C304   1.325       .  A
C299        F306   1.341       .  S
C300        C301   1.386       .  A
C301        C302   1.322       .  A
C301        F308   1.333       .  S
C302        C303   1.384       .  A
C302        F307   1.344       .  S
C303        C304   1.399       .  A
C304        F305   1.358       .  S
C309        C310   1.389       .  A
C309        C314   1.322       .  A
C309        F316   1.356       .  S
C310        C311   1.388       .  A
C311        C312   1.338       .  A
C311        F318   1.350       .  S
C312        C313   1.420       .  A
C312       F1013   1.330       .  S
C313        C963   1.469       .  S
C313        C314   1.407       .  A
F317       C1008   1.330   1_455  S
C319        C320   1.381       .  A
C319        C324   1.324       .  A
C319        F326   1.346       .  S
C320        C321   1.395       .  A
C321        C322   1.312       .  A
C321        F328   1.356       .  S
C322        C323   1.406       .  A
C322        F327   1.333       .  S
C323        C324   1.399       .  A
C324        F325   1.343       .  S
C329        C330   1.400       .  A
C329        C334   1.323       .  A
C329        F336   1.353       .  S
C330        C331   1.385       .  A
C331        C332   1.328       .  A
C331        F338   1.345       .  S
C332        C333   1.381       .  A
C332        F337   1.348       .  S
C333        C334   1.407       .  A
C334        F335   1.329       .  S
C339        C340   1.392       .  A
C339        C344   1.317       .  A
C339        F346   1.352       .  S
C340        C341   1.377       .  A
C341        C342   1.324       .  A
C341        F348   1.356       .  S
C342        C343   1.411       .  A
C342        F347   1.351   1_556  S
C343       C1137   1.468       .  S
C343        C344   1.415       .  A
C344        F693   1.344   1_545  S
F345        C692   1.344       .  S
O349       Ni357   2.002       .  S
O349        C359   1.310       .  A
O350      Ni1053   2.003   1_455  S
O350        C360   1.303       .  A
O351      Ni1053   2.036   1_455  S
O351        C361   1.292       .  A
O352       Ni357   2.025       .  S
O352        C362   1.289       .  A
O353      Ni1054   1.983       .  S
O353        C362   1.303       .  A
O354       Ni358   1.988       .  S
O354        C361   1.306       .  A
O355       Ni358   1.978       .  S
O355        C360   1.281       .  A
O356      Ni1054   1.987       .  S
O356        C359   1.285       .  A
Ni357      O1046   2.003       .  S
Ni357      O1047   2.036       .  S
Ni357     Ni1054   2.304       .  S
Ni358      O1049   1.983   1_455  S
Ni358      O1052   1.987   1_455  S
Ni358     Ni1053   2.304   1_455  S
C359        C363   1.664       .  S
C360        C426   1.664       .  S
C361        C423   1.698       .  S
C362        C392   1.682       .  S
C363        C374   1.681       .  S
C363        C404   1.725       .  S
C363        C514   1.448       .  S
O364        C374   1.312       .  A
O365       Ni372   2.003   1_565  S
O365        C375   1.310       .  A
O366       Ni372   2.012   1_565  S
O366        C376   1.290       .  A
O367        C377   1.296       .  A
O368        C377   1.316       .  A
O369       Ni373   2.068   1_565  S
O369        C376   1.324       .  A
O370       Ni373   2.017   1_565  S
O370        C375   1.290       .  A
O371        C374   1.300       .  A
Ni372      Ni373   2.333       .  S
C375        C424   1.696       .  S
C376        C407   1.701       .  S
C377        C423   1.688       .  S
O378        C388   1.320       .  A
O379       Ni386   2.061       .  S
O379        C389   1.321       .  A
O380       Ni386   2.013       .  S
O380        C390   1.289       .  A
O381        C391   1.293       .  A
O382        C391   1.309       .  A
O383       Ni387   1.972       .  S
O383        C390   1.299       .  A
O384       Ni387   2.000       .  S
O384        C389   1.286       .  A
O385        C388   1.284       .  A
Ni386      Ni387   2.324       .  S
C388        C392   1.669       .  S
C389        C425   1.695       .  S
C390        C408   1.685       .  S
C391        C426   1.672       .  S
C392        C406   1.679       .  S
C392        C504   1.466       .  S
O393       Ni401   2.001   1_554  S
O393        C403   1.316       .  A
O394       Ni575   2.015       .  S
O394        C404   1.311       .  A
O395       Ni575   2.019       .  S
O395        C405   1.290       .  A
O396       Ni401   2.009   1_554  S
O396        C406   1.285       .  A
O397       Ni402   2.035       .  S
O397        C406   1.319       .  A
O398       Ni576   2.035       .  S
O398        C405   1.325       .  A
O399       Ni576   2.051       .  S
O399        C404   1.295       .  A
O400       Ni402   2.051       .  S
O400        C403   1.298       .  A
Ni401       O568   2.015       .  S
Ni401       O569   2.019       .  S
Ni401      Ni402   2.318   1_556  S
Ni402       O572   2.035   1_554  S
Ni402       O573   2.051   1_554  S
C403        C408   1.702       .  S
C405        C407   1.698       .  S
C407        C421   1.706       .  S
C407        C494   1.445       .  S
C408        C420   1.691       .  S
C408        C484   1.457       .  S
O409      Ni1113   2.053   1_455  S
O409        C419   1.318       .  A
O410       Ni417   2.056       .  S
O410        C420   1.316       .  A
O411       Ni417   2.052       .  S
O411        C421   1.299       .  A
O412      Ni1113   2.023   1_455  S
O412        C422   1.292       .  A
O413      Ni1114   1.991   1_455  S
O413        C422   1.304       .  A
O414       Ni418   1.984       .  S
O414        C421   1.301       .  A
O415       Ni418   2.005       .  S
O415        C420   1.293       .  A
O416      Ni1114   1.984   1_455  S
O416        C419   1.282       .  A
Ni417      O1105   2.053       .  S
Ni417      O1108   2.023       .  S
Ni417      Ni418   2.321       .  S
Ni418      O1109   1.991       .  S
Ni418      O1112   1.984       .  S
C419        C424   1.678       .  S
C422        C425   1.680       .  S
C423        C440   1.690       .  S
C423        C477   1.451       .  S
C424        C437   1.694       .  S
C424        C464   1.452       .  S
C425        C439   1.694       .  S
C425        C454   1.445       .  S
C426        C438   1.722       .  S
C426        C447   1.446       .  S
O427       Ni609   2.044       .  S
O427        C437   1.326       .  A
O428       Ni435   2.071       .  S
O428        C438   1.325       .  A
O429       Ni435   2.031       .  S
O429        C439   1.295       .  A
O430       Ni609   2.011       .  S
O430        C440   1.288       .  A
O431       Ni610   2.008       .  S
O431        C440   1.318       .  A
O432       Ni436   2.015       .  S
O432        C439   1.319       .  A
O433       Ni436   2.044       .  S
O433        C438   1.298       .  A
O434       Ni610   2.029       .  S
O434        C437   1.293       .  A
Ni435       O601   2.044   1_554  S
Ni435       O604   2.011   1_554  S
Ni435      Ni436   2.330       .  S
Ni436       O605   2.008   1_554  S
Ni436       O608   2.029   1_554  S
C441        C641   1.508   1_645  S
C441       C1183   1.469   1_546  S
C441       C1039   1.468       .  S
C442        C457   1.419       .  S
C442        C474   1.447       .  S
C442        C497   1.443       .  S
C442        C507   1.443       .  S
C443        C444   1.396       .  A
C443        C448   1.332       .  A
C444        C445   1.418       .  A
C445        C446   1.310       .  A
C445        F626   1.344   1_554  S
C446        C447   1.382       .  A
C446        F451   1.353       .  S
C447        C448   1.394       .  A
C448        F449   1.353       .  S
F452        C619   1.344       .  S
C453        C454   1.385       .  A
C453        C458   1.313       .  A
C453        F460   1.345       .  S
C454        C455   1.407       .  A
C455        C456   1.329       .  A
C455        F462   1.355       .  S
C456        C457   1.405       .  A
C456        F461   1.329       .  S
C457        C458   1.380       .  A
C458        F459   1.343       .  S
C463        C464   1.403       .  A
C463        C468   1.344       .  A
C463        F470   1.354       .  S
C464        C465   1.372       .  A
C465        C466   1.337       .  A
C465        F472   1.349   1_455  S
C466        C467   1.374       .  A
C466       F1167   1.350       .  S
C467        C615   1.508   1_465  S
C467        C468   1.411       .  A
C468        F643   1.337       .  S
F469        C642   1.337   1_554  S
F471       C1162   1.350       .  S
C473        C474   1.412       .  A
C473        C478   1.325       .  A
C473        F480   1.341       .  S
C474        C475   1.386       .  A
C475        C476   1.322       .  A
C475        F482   1.333       .  S
C476        C477   1.384       .  A
C476        F481   1.344       .  S
C477        C478   1.399       .  A
C478        F479   1.358       .  S
C483        C484   1.389       .  A
C483        C488   1.322       .  A
C483        F490   1.356       .  S
C484        C485   1.388       .  A
C485        C486   1.338       .  A
C485        F492   1.350       .  S
C486        C487   1.420       .  A
C486       F1187   1.330       .  S
C487       C1137   1.469   1_564  S
C487        C488   1.407       .  A
C488        F663   1.356   1_565  S
F489        C662   1.356   1_545  S
F491       C1182   1.330   1_455  S
C493        C494   1.381       .  A
C493        C498   1.324       .  A
C493        F500   1.346       .  S
C494        C495   1.395       .  A
C495        C496   1.312       .  A
C495        F502   1.356       .  S
C496        C497   1.406       .  A
C496        F501   1.333       .  S
C497        C498   1.400       .  A
C498        F499   1.343       .  S
C503        C504   1.400       .  A
C503        C508   1.323       .  A
C503        F510   1.353       .  S
C504        C505   1.385       .  A
C505        C506   1.328       .  A
C505        F512   1.345       .  S
C506        C507   1.381       .  A
C506        F511   1.348       .  S
C507        C508   1.407       .  A
C508        F509   1.329       .  S
C513        C514   1.392       .  A
C513        C518   1.317       .  A
C513        F520   1.352       .  S
C514        C515   1.377       .  A
C515        C516   1.324       .  A
C515        F522   1.356       .  S
C516        C517   1.411       .  A
C516        F521   1.351       .  S
C517        C963   1.468       .  S
C517        C518   1.415       .  A
O523       Ni531   2.002       .  S
O523        C533   1.310       .  A
O524      Ni1227   2.003   1_455  S
O524        C534   1.303       .  A
O525      Ni1227   2.036   1_455  S
O525        C535   1.292       .  A
O526       Ni531   2.025       .  S
O526        C536   1.289       .  A
O527      Ni1228   1.983       .  S
O527        C536   1.303       .  A
O528       Ni532   1.988       .  S
O528        C535   1.306       .  A
O529       Ni532   1.978       .  S
O529        C534   1.281       .  A
O530      Ni1228   1.987       .  S
O530        C533   1.285       .  A
Ni531      O1220   2.003       .  S
Ni531      O1221   2.036       .  S
Ni531     Ni1228   2.304       .  S
Ni532      O1223   1.983   1_455  S
Ni532      O1226   1.987   1_455  S
Ni532     Ni1227   2.304   1_455  S
C533        C537   1.664       .  S
C534        C600   1.664       .  S
C535        C597   1.698       .  S
C536        C566   1.682       .  S
C537        C548   1.681       .  S
C537        C578   1.725       .  S
C537        C688   1.448       .  S
O538        C548   1.312       .  A
O539       Ni546   2.003   1_565  S
O539        C549   1.310       .  A
O540       Ni546   2.012   1_565  S
O540        C550   1.290       .  A
O541        C551   1.296       .  A
O542        C551   1.316       .  A
O543       Ni547   2.068   1_565  S
O543        C550   1.324       .  A
O544       Ni547   2.017   1_565  S
O544        C549   1.290       .  A
O545        C548   1.300       .  A
Ni546      Ni547   2.333       .  S
C549        C598   1.696       .  S
C550        C581   1.701       .  S
C551        C597   1.688       .  S
O552        C562   1.320       .  A
O553       Ni560   2.061       .  S
O553        C563   1.321       .  A
O554       Ni560   2.013       .  S
O554        C564   1.289       .  A
O555        C565   1.293       .  A
O556        C565   1.309       .  A
O557       Ni561   1.972       .  S
O557        C564   1.299       .  A
O558       Ni561   2.000       .  S
O558        C563   1.286       .  A
O559        C562   1.284       .  A
Ni560      Ni561   2.324       .  S
C562        C566   1.669       .  S
C563        C599   1.695       .  S
C564        C582   1.685       .  S
C565        C600   1.672       .  S
C566        C580   1.679       .  S
C566        C678   1.466       .  S
O567       Ni575   2.001       .  S
O567        C577   1.316       .  A
O568        C578   1.311       .  A
O569        C579   1.290       .  A
O570       Ni575   2.009       .  S
O570        C580   1.285       .  A
O571       Ni576   2.035       .  S
O571        C580   1.319       .  A
O572        C579   1.325       .  A
O573        C578   1.295       .  A
O574       Ni576   2.051       .  S
O574        C577   1.298       .  A
Ni575      Ni576   2.318       .  S
C577        C582   1.702       .  S
C579        C581   1.698       .  S
C581        C595   1.706       .  S
C581        C668   1.445       .  S
C582        C594   1.691       .  S
C582        C658   1.457       .  S
O583      Ni1287   2.053   1_455  S
O583        C593   1.318       .  A
O584       Ni591   2.056       .  S
O584        C594   1.316       .  A
O585       Ni591   2.052       .  S
O585        C595   1.299       .  A
O586      Ni1287   2.023   1_455  S
O586        C596   1.292       .  A
O587      Ni1288   1.991   1_455  S
O587        C596   1.304       .  A
O588       Ni592   1.984       .  S
O588        C595   1.301       .  A
O589       Ni592   2.005       .  S
O589        C594   1.293       .  A
O590      Ni1288   1.984   1_455  S
O590        C593   1.282       .  A
Ni591      O1279   2.053       .  S
Ni591      O1282   2.023       .  S
Ni591      Ni592   2.321       .  S
Ni592      O1283   1.991       .  S
Ni592      O1286   1.984       .  S
C593        C598   1.678       .  S
C596        C599   1.680       .  S
C597        C614   1.690       .  S
C597        C651   1.451       .  S
C598        C611   1.694       .  S
C598        C638   1.452       .  S
C599        C613   1.694       .  S
C599        C628   1.445       .  S
C600        C612   1.722       .  S
C600        C621   1.446       .  S
O601        C611   1.326       .  A
O602       Ni609   2.071       .  S
O602        C612   1.325       .  A
O603       Ni609   2.031       .  S
O603        C613   1.295       .  A
O604        C614   1.288       .  A
O605        C614   1.318       .  A
O606       Ni610   2.015       .  S
O606        C613   1.319       .  A
O607       Ni610   2.044       .  S
O607        C612   1.298       .  A
O608        C611   1.293       .  A
Ni609      Ni610   2.330       .  S
C615       C1357   1.469   1_545  S
C615        C865   1.468       .  S
C616        C631   1.419       .  S
C616        C648   1.447       .  S
C616        C671   1.443       .  S
C616        C681   1.443       .  S
C617        C618   1.396       .  A
C617        C622   1.332       .  A
C618        C619   1.418       .  A
C619        C620   1.310       .  A
C620        C621   1.382       .  A
C620        F625   1.353       .  S
C621        C622   1.394       .  A
C622        F623   1.353       .  S
C627        C628   1.385       .  A
C627        C632   1.313       .  A
C627        F634   1.345       .  S
C628        C629   1.407       .  A
C629        C630   1.329       .  A
C629        F636   1.355       .  S
C630        C631   1.405       .  A
C630        F635   1.329       .  S
C631        C632   1.380       .  A
C632        F633   1.343       .  S
C637        C638   1.403       .  A
C637        C642   1.344       .  A
C637        F644   1.354       .  S
C638        C639   1.372       .  A
C639        C640   1.337       .  A
C639        F646   1.349   1_455  S
C640        C641   1.374       .  A
C640       F1341   1.350       .  S
C641        C642   1.411       .  A
F645       C1336   1.350       .  S
C647        C648   1.412       .  A
C647        C652   1.325       .  A
C647        F654   1.341       .  S
C648        C649   1.386       .  A
C649        C650   1.322       .  A
C649        F656   1.333       .  S
C650        C651   1.384       .  A
C650        F655   1.344       .  S
C651        C652   1.399       .  A
C652        F653   1.358       .  S
C657        C658   1.389       .  A
C657        C662   1.322       .  A
C657        F664   1.356       .  S
C658        C659   1.388       .  A
C659        C660   1.338       .  A
C659        F666   1.350       .  S
C660        C661   1.420       .  A
C660       F1361   1.330       .  S
C661       C1311   1.469   1_565  S
C661        C662   1.407       .  A
F665       C1356   1.330   1_455  S
C667        C668   1.381       .  A
C667        C672   1.324       .  A
C667        F674   1.346       .  S
C668        C669   1.395       .  A
C669        C670   1.312       .  A
C669        F676   1.356       .  S
C670        C671   1.406       .  A
C670        F675   1.333       .  S
C671        C672   1.400       .  A
C672        F673   1.343       .  S
C677        C678   1.400       .  A
C677        C682   1.323       .  A
C677        F684   1.353       .  S
C678        C679   1.385       .  A
C679        C680   1.328       .  A
C679        F686   1.345       .  S
C680        C681   1.381       .  A
C680        F685   1.348       .  S
C681        C682   1.407       .  A
C682        F683   1.329       .  S
C687        C688   1.392       .  A
C687        C692   1.317       .  A
C687        F694   1.352       .  S
C688        C689   1.377       .  A
C689        C690   1.324       .  A
C689        F696   1.356       .  S
C690        C691   1.411       .  A
C690        F695   1.351   1_556  S
C691        C789   1.468       .  S
C691        C692   1.415       .  A
O697       Ni705   2.002       .  S
O697        C707   1.311       .  A
O698        C708   1.303       .  A
O699        C709   1.292       .  A
O700       Ni705   2.025       .  S
O700        C710   1.289       .  A
O701        C710   1.303       .  A
O702       Ni706   1.988       .  S
O702        C709   1.306       .  A
O703       Ni706   1.978       .  S
O703        C708   1.281       .  A
O704        C707   1.285       .  A
C707        C711   1.664       .  S
C708        C774   1.664       .  S
C709        C771   1.698       .  S
C710        C740   1.682       .  S
C711        C722   1.681       .  S
C711        C752   1.725       .  S
C711        C862   1.448       .  S
O712      Ni1068   2.029       .  S
O712        C722   1.312       .  A
O713       Ni720   2.003       .  S
O713        C723   1.310       .  A
O714       Ni720   2.012       .  S
O714        C724   1.290       .  A
O715      Ni1068   2.023       .  S
O715        C725   1.296       .  A
O716      Ni1069   2.050       .  S
O716        C725   1.316       .  A
O717       Ni721   2.068       .  S
O717        C724   1.324       .  A
O718       Ni721   2.017       .  S
O718        C723   1.290       .  A
O719      Ni1069   2.023       .  S
O719        C722   1.300       .  A
Ni720      O1060   2.029       .  S
Ni720      O1063   2.023       .  S
Ni720      Ni721   2.333       .  S
Ni721      O1064   2.050       .  S
Ni721      O1067   2.023       .  S
C723        C772   1.696       .  S
C724        C755   1.701       .  S
C725        C771   1.688       .  S
O726      Ni1082   2.046   1_545  S
O726        C736   1.320       .  A
O727       Ni734   2.061       .  S
O727        C737   1.321       .  A
O728       Ni734   2.013       .  S
O728        C738   1.289       .  A
O729      Ni1082   2.016   1_545  S
O729        C739   1.293       .  A
O730      Ni1083   1.985   1_545  S
O730        C739   1.309       .  A
O731       Ni735   1.972       .  S
O731        C738   1.299       .  A
O732       Ni735   2.000       .  S
O732        C737   1.286       .  A
O733      Ni1083   1.997   1_545  S
O733        C736   1.284       .  A
Ni734      O1074   2.046       .  S
Ni734      O1077   2.016       .  S
Ni734      Ni735   2.324       .  S
Ni735      O1078   1.985       .  S
Ni735      O1081   1.997       .  S
C736        C740   1.669       .  S
C737        C773   1.695       .  S
C738        C756   1.685       .  S
C739        C774   1.672       .  S
C740        C754   1.679       .  S
C740        C852   1.466       .  S
O741       Ni749   2.001   1_554  S
O741        C751   1.316       .  A
O742       Ni923   2.015       .  S
O742        C752   1.311       .  A
O743       Ni923   2.019       .  S
O743        C753   1.290       .  A
O744       Ni749   2.009   1_554  S
O744        C754   1.285       .  A
O745       Ni750   2.035       .  S
O745        C754   1.319       .  A
O746       Ni924   2.035       .  S
O746        C753   1.325       .  A
O747       Ni924   2.051       .  S
O747        C752   1.295       .  A
O748       Ni750   2.051       .  S
O748        C751   1.298       .  A
Ni749       O916   2.015       .  S
Ni749       O917   2.019       .  S
Ni749      Ni750   2.319   1_556  S
Ni750       O920   2.035   1_554  S
Ni750       O921   2.051   1_554  S
C751        C756   1.702       .  S
C753        C755   1.698       .  S
C755        C769   1.706       .  S
C755        C842   1.445       .  S
C756        C768   1.691       .  S
C756        C832   1.457       .  S
O757        C767   1.318       .  A
O758       Ni765   2.056       .  S
O758        C768   1.316       .  A
O759       Ni765   2.052       .  S
O759        C769   1.299       .  A
O760        C770   1.292       .  A
O761        C770   1.304       .  A
O762       Ni766   1.984       .  S
O762        C769   1.301       .  A
O763       Ni766   2.005       .  S
O763        C768   1.293       .  A
O764        C767   1.282       .  A
Ni765      Ni766   2.321       .  S
C767        C772   1.678       .  S
C770        C773   1.680       .  S
C771        C788   1.690       .  S
C771        C825   1.451       .  S
C772        C785   1.694       .  S
C772        C812   1.452       .  S
C773        C787   1.694       .  S
C773        C802   1.445       .  S
C774        C786   1.722       .  S
C774        C795   1.446       .  S
O775       Ni957   2.044       .  S
O775        C785   1.326       .  A
O776       Ni783   2.071       .  S
O776        C786   1.325       .  A
O777       Ni783   2.031       .  S
O777        C787   1.295       .  A
O778       Ni957   2.011       .  S
O778        C788   1.288       .  A
O779       Ni958   2.008       .  S
O779        C788   1.318       .  A
O780       Ni784   2.015       .  S
O780        C787   1.319       .  A
O781       Ni784   2.044       .  S
O781        C786   1.298       .  A
O782       Ni958   2.029       .  S
O782        C785   1.293       .  A
Ni783       O949   2.044   1_554  S
Ni783       O952   2.011   1_554  S
Ni783      Ni784   2.330       .  S
Ni784       O953   2.008   1_554  S
Ni784       O956   2.029   1_554  S
C789       C1140   1.441   1_556  S
C789        C989   1.508       .  S
C790        C805   1.419       .  S
C790        C822   1.447       .  S
C790        C845   1.443       .  S
C790        C855   1.443       .  S
C791        C792   1.396       .  A
C791        C796   1.332       .  A
C791       F1146   1.356       .  S
C792       C1137   1.441   1_554  S
C792        C793   1.418       .  A
C793        C794   1.310       .  A
C793        F974   1.344   1_554  S
C794        C795   1.382       .  A
C794        F799   1.353       .  S
C795        C796   1.394       .  A
C796        F797   1.353       .  S
F798       C1139   1.356       .  S
F800        C967   1.344       .  S
C801        C802   1.385       .  A
C801        C806   1.313       .  A
C801        F808   1.345       .  S
C802        C803   1.407       .  A
C803        C804   1.329       .  A
C803        F810   1.355       .  S
C804        C805   1.405       .  A
C804        F809   1.329       .  S
C805        C806   1.380       .  A
C806        F807   1.343       .  S
C811        C812   1.403       .  A
C811        C816   1.344       .  A
C811        F818   1.354       .  S
C812        C813   1.372       .  A
C813        C814   1.337       .  A
C813        F820   1.349       .  S
C814        C815   1.374       .  A
C815        C963   1.508       .  S
C815        C816   1.411       .  A
C816        F991   1.337       .  S
F817        C990   1.337   1_554  S
C821        C822   1.412       .  A
C821        C826   1.325       .  A
C821        F828   1.341       .  S
C822        C823   1.386       .  A
C823        C824   1.322       .  A
C823        F830   1.333       .  S
C824        C825   1.384       .  A
C824        F829   1.344       .  S
C825        C826   1.399       .  A
C826        F827   1.358       .  S
C831        C832   1.389       .  A
C831        C836   1.322       .  A
C831        F838   1.356       .  S
C832        C833   1.388       .  A
C833        C834   1.338       .  A
C833        F840   1.350       .  S
C834        C835   1.420       .  A
C835        C836   1.407       .  A
C836       F1011   1.356       .  S
F837       C1010   1.356       .  S
C841        C842   1.381       .  A
C841        C846   1.324       .  A
C841        F848   1.346       .  S
C842        C843   1.395       .  A
C843        C844   1.312       .  A
C843        F850   1.356       .  S
C844        C845   1.406       .  A
C844        F849   1.333       .  S
C845        C846   1.399       .  A
C846        F847   1.343       .  S
C851        C852   1.400       .  A
C851        C856   1.323       .  A
C851        F858   1.353       .  S
C852        C853   1.385       .  A
C853        C854   1.328       .  A
C853        F860   1.345       .  S
C854        C855   1.381       .  A
C854        F859   1.348       .  S
C855        C856   1.407       .  A
C856        F857   1.329       .  S
C861        C862   1.392       .  A
C861        C866   1.317       .  A
C861        F868   1.352       .  S
C862        C863   1.377       .  A
C863        C864   1.324       .  A
C863        F870   1.356       .  S
C864        C865   1.411       .  A
C864        F869   1.351       .  S
C865        C866   1.415       .  A
C866       F1215   1.344   1_545  S
F867       C1214   1.344       .  S
O871       Ni879   2.002       .  S
O871        C881   1.311       .  A
O872        C882   1.303       .  A
O873        C883   1.292       .  A
O874       Ni879   2.025       .  S
O874        C884   1.289       .  A
O875        C884   1.303       .  A
O876       Ni880   1.988       .  S
O876        C883   1.306       .  A
O877       Ni880   1.978       .  S
O877        C882   1.281       .  A
O878        C881   1.285       .  A
C881        C885   1.664       .  S
C882        C948   1.664       .  S
C883        C945   1.698       .  S
C884        C914   1.682       .  S
C885        C896   1.681       .  S
C885        C926   1.725       .  S
C885       C1036   1.448       .  S
O886      Ni1242   2.029       .  S
O886        C896   1.312       .  A
O887       Ni894   2.003       .  S
O887        C897   1.310       .  A
O888       Ni894   2.012       .  S
O888        C898   1.290       .  A
O889      Ni1242   2.023       .  S
O889        C899   1.296       .  A
O890      Ni1243   2.050       .  S
O890        C899   1.316       .  A
O891       Ni895   2.068       .  S
O891        C898   1.324       .  A
O892       Ni895   2.017       .  S
O892        C897   1.290       .  A
O893      Ni1243   2.023       .  S
O893        C896   1.300       .  A
Ni894      O1234   2.029       .  S
Ni894      O1237   2.023       .  S
Ni894      Ni895   2.333       .  S
Ni895      O1238   2.050       .  S
Ni895      O1241   2.023       .  S
C897        C946   1.696       .  S
C898        C929   1.701       .  S
C899        C945   1.688       .  S
O900      Ni1256   2.046   1_545  S
O900        C910   1.320       .  A
O901       Ni908   2.061       .  S
O901        C911   1.321       .  A
O902       Ni908   2.013       .  S
O902        C912   1.289       .  A
O903      Ni1256   2.016   1_545  S
O903        C913   1.293       .  A
O904      Ni1257   1.985   1_545  S
O904        C913   1.309       .  A
O905       Ni909   1.972       .  S
O905        C912   1.299       .  A
O906       Ni909   2.000       .  S
O906        C911   1.286       .  A
O907      Ni1257   1.997   1_545  S
O907        C910   1.284       .  A
Ni908      O1248   2.046       .  S
Ni908      O1251   2.016       .  S
Ni908      Ni909   2.324       .  S
Ni909      O1252   1.985       .  S
Ni909      O1255   1.997       .  S
C910        C914   1.669       .  S
C911        C947   1.695       .  S
C912        C930   1.685       .  S
C913        C948   1.672       .  S
C914        C928   1.679       .  S
C914       C1026   1.466       .  S
O915       Ni923   2.001       .  S
O915        C925   1.316       .  A
O916        C926   1.311       .  A
O917        C927   1.290       .  A
O918       Ni923   2.009       .  S
O918        C928   1.285       .  A
O919       Ni924   2.035       .  S
O919        C928   1.319       .  A
O920        C927   1.325       .  A
O921        C926   1.295       .  A
O922       Ni924   2.051       .  S
O922        C925   1.298       .  A
Ni923      Ni924   2.319       .  S
C925        C930   1.702       .  S
C927        C929   1.698       .  S
C929        C943   1.706       .  S
C929       C1016   1.445       .  S
C930        C942   1.691       .  S
C930       C1006   1.457       .  S
O931        C941   1.318       .  A
O932       Ni939   2.056       .  S
O932        C942   1.316       .  A
O933       Ni939   2.052       .  S
O933        C943   1.299       .  A
O934        C944   1.292       .  A
O935        C944   1.304       .  A
O936       Ni940   1.984       .  S
O936        C943   1.301       .  A
O937       Ni940   2.005       .  S
O937        C942   1.293       .  A
O938        C941   1.282       .  A
Ni939      Ni940   2.321       .  S
C941        C946   1.678       .  S
C944        C947   1.680       .  S
C945        C962   1.690       .  S
C945        C999   1.451       .  S
C946        C959   1.694       .  S
C946        C986   1.452       .  S
C947        C961   1.694       .  S
C947        C976   1.445       .  S
C948        C960   1.722       .  S
C948        C969   1.446       .  S
O949        C959   1.326       .  A
O950       Ni957   2.071       .  S
O950        C960   1.325       .  A
O951       Ni957   2.031       .  S
O951        C961   1.295       .  A
O952        C962   1.288       .  A
O953        C962   1.318       .  A
O954       Ni958   2.015       .  S
O954        C961   1.319       .  A
O955       Ni958   2.044       .  S
O955        C960   1.298       .  A
O956        C959   1.293       .  A
Ni957      Ni958   2.330       .  S
C963       C1314   1.441       .  S
C964        C979   1.419       .  S
C964        C996   1.447       .  S
C964       C1019   1.443       .  S
C964       C1029   1.443       .  S
C965        C966   1.396       .  A
C965        C970   1.332       .  A
C965       F1320   1.356       .  S
C966       C1311   1.441       .  S
C966        C967   1.418       .  A
C967        C968   1.310       .  A
C968        C969   1.382       .  A
C968        F973   1.353       .  S
C969        C970   1.394       .  A
C970        F971   1.353       .  S
F972       C1313   1.356       .  S
C975        C976   1.385       .  A
C975        C980   1.313       .  A
C975        F982   1.345       .  S
C976        C977   1.407       .  A
C977        C978   1.329       .  A
C977        F984   1.355       .  S
C978        C979   1.405       .  A
C978        F983   1.329       .  S
C979        C980   1.380       .  A
C980        F981   1.343       .  S
C985        C986   1.403       .  A
C985        C990   1.344       .  A
C985        F992   1.354       .  S
C986        C987   1.372       .  A
C987        C988   1.337       .  A
C987        F994   1.349       .  S
C988        C989   1.374       .  A
C989        C990   1.411       .  A
C995        C996   1.412       .  A
C995       C1000   1.325       .  A
C995       F1002   1.341       .  S
C996        C997   1.386       .  A
C997        C998   1.322       .  A
C997       F1004   1.333       .  S
C998        C999   1.384       .  A
C998       F1003   1.344       .  S
C999       C1000   1.399       .  A
C1000      F1001   1.358       .  S
C1005      C1006   1.389       .  A
C1005      C1010   1.322       .  A
C1005      F1012   1.356       .  S
C1006      C1007   1.388       .  A
C1007      C1008   1.338       .  A
C1007      F1014   1.350       .  S
C1008      C1009   1.420       .  A
C1009      C1010   1.407       .  A
C1015      C1016   1.381       .  A
C1015      C1020   1.324       .  A
C1015      F1022   1.346       .  S
C1016      C1017   1.395       .  A
C1017      C1018   1.312       .  A
C1017      F1024   1.356       .  S
C1018      C1019   1.406       .  A
C1018      F1023   1.333       .  S
C1019      C1020   1.399       .  A
C1020      F1021   1.343       .  S
C1025      C1026   1.400       .  A
C1025      C1030   1.323       .  A
C1025      F1032   1.353       .  S
C1026      C1027   1.385       .  A
C1027      C1028   1.328       .  A
C1027      F1034   1.345       .  S
C1028      C1029   1.381       .  A
C1028      F1033   1.348       .  S
C1029      C1030   1.407       .  A
C1030      F1031   1.329       .  S
C1035      C1036   1.392       .  A
C1035      C1040   1.317       .  A
C1035      F1042   1.352       .  S
C1036      C1037   1.377       .  A
C1037      C1038   1.324       .  A
C1037      F1044   1.356       .  S
C1038      C1039   1.411       .  A
C1038      F1043   1.351   1_556  S
C1039      C1040   1.415       .  A
C1040      F1389   1.344   1_545  S
F1041      C1388   1.344       .  S
O1045     Ni1053   2.002       .  S
O1045      C1055   1.310       .  A
O1046      C1056   1.303       .  A
O1047      C1057   1.292       .  A
O1048     Ni1053   2.025       .  S
O1048      C1058   1.289       .  A
O1049      C1058   1.303       .  A
O1050     Ni1054   1.988       .  S
O1050      C1057   1.306       .  A
O1051     Ni1054   1.978       .  S
O1051      C1056   1.281       .  A
O1052      C1055   1.285       .  A
C1055      C1059   1.664       .  S
C1056      C1122   1.664       .  S
C1057      C1119   1.698       .  S
C1058      C1088   1.682       .  S
C1059      C1070   1.681       .  S
C1059      C1100   1.725       .  S
C1059      C1210   1.448       .  S
O1060      C1070   1.312       .  A
O1061     Ni1068   2.003   1_565  S
O1061      C1071   1.310       .  A
O1062     Ni1068   2.012   1_565  S
O1062      C1072   1.290       .  A
O1063      C1073   1.296       .  A
O1064      C1073   1.316       .  A
O1065     Ni1069   2.068   1_565  S
O1065      C1072   1.324       .  A
O1066     Ni1069   2.017   1_565  S
O1066      C1071   1.290       .  A
O1067      C1070   1.300       .  A
Ni1068    Ni1069   2.333       .  S
C1071      C1120   1.696       .  S
C1072      C1103   1.701       .  S
C1073      C1119   1.688       .  S
O1074      C1084   1.320       .  A
O1075     Ni1082   2.061       .  S
O1075      C1085   1.321       .  A
O1076     Ni1082   2.013       .  S
O1076      C1086   1.289       .  A
O1077      C1087   1.293       .  A
O1078      C1087   1.309       .  A
O1079     Ni1083   1.972       .  S
O1079      C1086   1.299       .  A
O1080     Ni1083   2.000       .  S
O1080      C1085   1.286       .  A
O1081      C1084   1.284       .  A
Ni1082    Ni1083   2.324       .  S
C1084      C1088   1.669       .  S
C1085      C1121   1.695       .  S
C1086      C1104   1.685       .  S
C1087      C1122   1.672       .  S
C1088      C1102   1.679       .  S
C1088      C1200   1.466       .  S
O1089     Ni1097   2.001   1_554  S
O1089      C1099   1.316       .  A
O1090     Ni1271   2.015       .  S
O1090      C1100   1.311       .  A
O1091     Ni1271   2.019       .  S
O1091      C1101   1.290       .  A
O1092     Ni1097   2.009   1_554  S
O1092      C1102   1.285       .  A
O1093     Ni1098   2.035       .  S
O1093      C1102   1.319       .  A
O1094     Ni1272   2.035       .  S
O1094      C1101   1.325       .  A
O1095     Ni1272   2.051       .  S
O1095      C1100   1.295       .  A
O1096     Ni1098   2.051       .  S
O1096      C1099   1.298       .  A
Ni1097     O1264   2.015       .  S
Ni1097     O1265   2.019       .  S
Ni1097    Ni1098   2.318   1_556  S
Ni1098     O1268   2.035   1_554  S
Ni1098     O1269   2.051   1_554  S
C1099      C1104   1.702       .  S
C1101      C1103   1.698       .  S
C1103      C1117   1.706       .  S
C1103      C1190   1.445       .  S
C1104      C1116   1.691       .  S
C1104      C1180   1.457       .  S
O1105      C1115   1.318       .  A
O1106     Ni1113   2.056       .  S
O1106      C1116   1.316       .  A
O1107     Ni1113   2.052       .  S
O1107      C1117   1.299       .  A
O1108      C1118   1.292       .  A
O1109      C1118   1.304       .  A
O1110     Ni1114   1.984       .  S
O1110      C1117   1.301       .  A
O1111     Ni1114   2.005       .  S
O1111      C1116   1.293       .  A
O1112      C1115   1.282       .  A
Ni1113    Ni1114   2.321       .  S
C1115      C1120   1.678       .  S
C1118      C1121   1.680       .  S
C1119      C1136   1.690       .  S
C1119      C1173   1.451       .  S
C1120      C1133   1.694       .  S
C1120      C1160   1.452       .  S
C1121      C1135   1.694       .  S
C1121      C1150   1.445       .  S
C1122      C1134   1.722       .  S
C1122      C1143   1.446       .  S
O1123     Ni1305   2.044       .  S
O1123      C1133   1.326       .  A
O1124     Ni1131   2.071       .  S
O1124      C1134   1.325       .  A
O1125     Ni1131   2.031       .  S
O1125      C1135   1.295       .  A
O1126     Ni1305   2.011       .  S
O1126      C1136   1.288       .  A
O1127     Ni1306   2.008       .  S
O1127      C1136   1.318       .  A
O1128     Ni1132   2.015       .  S
O1128      C1135   1.319       .  A
O1129     Ni1132   2.044       .  S
O1129      C1134   1.298       .  A
O1130     Ni1306   2.029       .  S
O1130      C1133   1.293       .  A
Ni1131     O1297   2.044   1_554  S
Ni1131     O1300   2.011   1_554  S
Ni1131    Ni1132   2.330       .  S
Ni1132     O1301   2.008   1_554  S
Ni1132     O1304   2.029   1_554  S
C1137      C1337   1.508   1_545  S
C1138      C1153   1.419       .  S
C1138      C1170   1.447       .  S
C1138      C1193   1.443       .  S
C1138      C1203   1.443       .  S
C1139      C1140   1.396       .  A
C1139      C1144   1.332       .  A
C1140      C1141   1.418       .  A
C1141      C1142   1.310       .  A
C1141      F1322   1.344   1_554  S
C1142      C1143   1.382       .  A
C1142      F1147   1.353       .  S
C1143      C1144   1.394       .  A
C1144      F1145   1.353       .  S
F1148      C1315   1.344       .  S
C1149      C1150   1.385       .  A
C1149      C1154   1.313       .  A
C1149      F1156   1.345       .  S
C1150      C1151   1.407       .  A
C1151      C1152   1.329       .  A
C1151      F1158   1.355       .  S
C1152      C1153   1.405       .  A
C1152      F1157   1.329       .  S
C1153      C1154   1.380       .  A
C1154      F1155   1.343       .  S
C1159      C1160   1.403       .  A
C1159      C1164   1.344       .  A
C1159      F1166   1.354       .  S
C1160      C1161   1.372       .  A
C1161      C1162   1.337       .  A
C1161      F1168   1.349       .  S
C1162      C1163   1.374       .  A
C1163      C1311   1.508   1_565  S
C1163      C1164   1.411       .  A
C1164      F1339   1.337       .  S
F1165      C1338   1.337   1_554  S
C1169      C1170   1.412       .  A
C1169      C1174   1.325       .  A
C1169      F1176   1.341       .  S
C1170      C1171   1.386       .  A
C1171      C1172   1.322       .  A
C1171      F1178   1.333       .  S
C1172      C1173   1.384       .  A
C1172      F1177   1.344       .  S
C1173      C1174   1.399       .  A
C1174      F1175   1.358       .  S
C1179      C1180   1.389       .  A
C1179      C1184   1.322       .  A
C1179      F1186   1.356       .  S
C1180      C1181   1.388       .  A
C1181      C1182   1.338       .  A
C1181      F1188   1.350       .  S
C1182      C1183   1.420       .  A
C1183      C1184   1.407       .  A
C1184      F1359   1.356   1_565  S
F1185      C1358   1.356   1_545  S
C1189      C1190   1.381       .  A
C1189      C1194   1.324       .  A
C1189      F1196   1.346       .  S
C1190      C1191   1.395       .  A
C1191      C1192   1.312       .  A
C1191      F1198   1.356       .  S
C1192      C1193   1.406       .  A
C1192      F1197   1.333       .  S
C1193      C1194   1.400       .  A
C1194      F1195   1.343       .  S
C1199      C1200   1.400       .  A
C1199      C1204   1.323       .  A
C1199      F1206   1.353       .  S
C1200      C1201   1.385       .  A
C1201      C1202   1.328       .  A
C1201      F1208   1.345       .  S
C1202      C1203   1.381       .  A
C1202      F1207   1.348       .  S
C1203      C1204   1.407       .  A
C1204      F1205   1.329       .  S
C1209      C1210   1.392       .  A
C1209      C1214   1.317       .  A
C1209      F1216   1.352       .  S
C1210      C1211   1.377       .  A
C1211      C1212   1.324       .  A
C1211      F1218   1.356       .  S
C1212      C1213   1.411       .  A
C1212      F1217   1.351       .  S
C1213      C1214   1.415       .  A
O1219     Ni1227   2.002       .  S
O1219      C1229   1.310       .  A
O1220      C1230   1.303       .  A
O1221      C1231   1.292       .  A
O1222     Ni1227   2.025       .  S
O1222      C1232   1.289       .  A
O1223      C1232   1.303       .  A
O1224     Ni1228   1.988       .  S
O1224      C1231   1.306       .  A
O1225     Ni1228   1.978       .  S
O1225      C1230   1.281       .  A
O1226      C1229   1.285       .  A
C1229      C1233   1.664       .  S
C1230      C1296   1.664       .  S
C1231      C1293   1.698       .  S
C1232      C1262   1.682       .  S
C1233      C1244   1.681       .  S
C1233      C1274   1.725       .  S
C1233      C1384   1.448       .  S
O1234      C1244   1.312       .  A
O1235     Ni1242   2.003   1_565  S
O1235      C1245   1.310       .  A
O1236     Ni1242   2.012   1_565  S
O1236      C1246   1.290       .  A
O1237      C1247   1.296       .  A
O1238      C1247   1.316       .  A
O1239     Ni1243   2.068   1_565  S
O1239      C1246   1.324       .  A
O1240     Ni1243   2.017   1_565  S
O1240      C1245   1.290       .  A
O1241      C1244   1.300       .  A
Ni1242    Ni1243   2.333       .  S
C1245      C1294   1.696       .  S
C1246      C1277   1.701       .  S
C1247      C1293   1.688       .  S
O1248      C1258   1.320       .  A
O1249     Ni1256   2.061       .  S
O1249      C1259   1.321       .  A
O1250     Ni1256   2.013       .  S
O1250      C1260   1.289       .  A
O1251      C1261   1.293       .  A
O1252      C1261   1.309       .  A
O1253     Ni1257   1.972       .  S
O1253      C1260   1.299       .  A
O1254     Ni1257   2.000       .  S
O1254      C1259   1.286       .  A
O1255      C1258   1.284       .  A
Ni1256    Ni1257   2.324       .  S
C1258      C1262   1.669       .  S
C1259      C1295   1.695       .  S
C1260      C1278   1.685       .  S
C1261      C1296   1.672       .  S
C1262      C1276   1.679       .  S
C1262      C1374   1.466       .  S
O1263     Ni1271   2.001       .  S
O1263      C1273   1.316       .  A
O1264      C1274   1.311       .  A
O1265      C1275   1.290       .  A
O1266     Ni1271   2.009       .  S
O1266      C1276   1.285       .  A
O1267     Ni1272   2.035       .  S
O1267      C1276   1.319       .  A
O1268      C1275   1.325       .  A
O1269      C1274   1.295       .  A
O1270     Ni1272   2.051       .  S
O1270      C1273   1.298       .  A
Ni1271    Ni1272   2.318       .  S
C1273      C1278   1.702       .  S
C1275      C1277   1.698       .  S
C1277      C1291   1.706       .  S
C1277      C1364   1.445       .  S
C1278      C1290   1.691       .  S
C1278      C1354   1.457       .  S
O1279      C1289   1.318       .  A
O1280     Ni1287   2.056       .  S
O1280      C1290   1.316       .  A
O1281     Ni1287   2.052       .  S
O1281      C1291   1.299       .  A
O1282      C1292   1.292       .  A
O1283      C1292   1.304       .  A
O1284     Ni1288   1.984       .  S
O1284      C1291   1.301       .  A
O1285     Ni1288   2.005       .  S
O1285      C1290   1.293       .  A
O1286      C1289   1.282       .  A
Ni1287    Ni1288   2.321       .  S
C1289      C1294   1.678       .  S
C1292      C1295   1.680       .  S
C1293      C1310   1.690       .  S
C1293      C1347   1.451       .  S
C1294      C1307   1.694       .  S
C1294      C1334   1.452       .  S
C1295      C1309   1.694       .  S
C1295      C1324   1.445       .  S
C1296      C1308   1.722       .  S
C1296      C1317   1.446       .  S
O1297      C1307   1.326       .  A
O1298     Ni1305   2.071       .  S
O1298      C1308   1.325       .  A
O1299     Ni1305   2.031       .  S
O1299      C1309   1.295       .  A
O1300      C1310   1.288       .  A
O1301      C1310   1.318       .  A
O1302     Ni1306   2.015       .  S
O1302      C1309   1.319       .  A
O1303     Ni1306   2.044       .  S
O1303      C1308   1.298       .  A
O1304      C1307   1.293       .  A
Ni1305    Ni1306   2.330       .  S
C1312      C1327   1.419       .  S
C1312      C1344   1.447       .  S
C1312      C1367   1.443       .  S
C1312      C1377   1.443       .  S
C1313      C1314   1.396       .  A
C1313      C1318   1.332       .  A
C1314      C1315   1.418       .  A
C1315      C1316   1.310       .  A
C1316      C1317   1.382       .  A
C1316      F1321   1.353       .  S
C1317      C1318   1.394       .  A
C1318      F1319   1.353       .  S
C1323      C1324   1.385       .  A
C1323      C1328   1.313       .  A
C1323      F1330   1.345       .  S
C1324      C1325   1.407       .  A
C1325      C1326   1.329       .  A
C1325      F1332   1.355       .  S
C1326      C1327   1.405       .  A
C1326      F1331   1.329       .  S
C1327      C1328   1.380       .  A
C1328      F1329   1.343       .  S
C1333      C1334   1.403       .  A
C1333      C1338   1.344       .  A
C1333      F1340   1.354       .  S
C1334      C1335   1.372       .  A
C1335      C1336   1.337       .  A
C1335      F1342   1.349       .  S
C1336      C1337   1.374       .  A
C1337      C1338   1.411       .  A
C1343      C1344   1.412       .  A
C1343      C1348   1.325       .  A
C1343      F1350   1.341       .  S
C1344      C1345   1.386       .  A
C1345      C1346   1.322       .  A
C1345      F1352   1.333       .  S
C1346      C1347   1.384       .  A
C1346      F1351   1.344       .  S
C1347      C1348   1.399       .  A
C1348      F1349   1.358       .  S
C1353      C1354   1.389       .  A
C1353      C1358   1.322       .  A
C1353      F1360   1.356       .  S
C1354      C1355   1.388       .  A
C1355      C1356   1.338       .  A
C1355      F1362   1.350       .  S
C1356      C1357   1.420       .  A
C1357      C1358   1.407       .  A
C1363      C1364   1.381       .  A
C1363      C1368   1.324       .  A
C1363      F1370   1.346       .  S
C1364      C1365   1.395       .  A
C1365      C1366   1.312       .  A
C1365      F1372   1.356       .  S
C1366      C1367   1.406       .  A
C1366      F1371   1.333       .  S
C1367      C1368   1.400       .  A
C1368      F1369   1.343       .  S
C1373      C1374   1.400       .  A
C1373      C1378   1.323       .  A
C1373      F1380   1.353       .  S
C1374      C1375   1.385       .  A
C1375      C1376   1.328       .  A
C1375      F1382   1.345       .  S
C1376      C1377   1.381       .  A
C1376      F1381   1.348       .  S
C1377      C1378   1.407       .  A
C1378      F1379   1.329       .  S
C1383      C1384   1.392       .  A
C1383      C1388   1.317       .  A
C1383      F1390   1.352       .  S
C1384      C1385   1.377       .  A
C1385      C1386   1.324       .  A
C1385      F1392   1.356       .  S
C1386      C1387   1.411       .  A
C1386      F1391   1.351   1_556  S
C1387      C1388   1.415       .  A
