geometry optimzed in LAMMPS
_audit_creation_date              2020-12-01 
_audit_creation_method            'lammps2cif' 
_symmetry_space_group_name_H-M    'P1' 
_symmetry_Int_Tables_number       1 
_symmetry_cell_setting            triclinic 
loop_ 
_symmetry_equiv_pos_as_xyz 
  x,y,z 
_cell_length_a                    67.64185938 
_cell_length_b                    67.79153337210906 
_cell_length_c                    45.27806970424551 
_cell_angle_alpha                 89.77202999759724 
_cell_angle_beta                  89.88615301442277 
_cell_angle_gamma                 119.94011831633968 
loop_ 
_atom_site_label 
_atom_site_type_symbol 
_atom_site_fract_x 
_atom_site_fract_y 
_atom_site_fract_z 
_atom_site_charge 
O1          O  0.34158532  0.86070849  0.62593439    -0.56600
C2          C  0.36643181  0.86962792  0.55449583     0.76100
O3          O  0.30260618  0.83211002  0.56300071    -0.57700
C4          C  0.32597794  0.85899281  0.64292570     0.76000
C5          C  0.33951914  0.91788346  0.57234967     0.78400
Cd6        Cd  0.32822058  0.87075957  0.58070781     1.37500
O7          O  0.36856353  0.88126884  0.57730132    -0.56600
O8          O  0.32675727  0.90585697  0.59330952    -0.55400
C9          C  0.28820149  0.83610351  0.55075793     0.78400
O10         O  0.34591293  0.90788883  0.55447300    -0.57700
O11         O  0.34666981  0.85870456  0.54347547    -0.56200
O12         O  0.31084727  0.86222537  0.63125334    -0.56200
O13         O  0.29168816  0.85620120  0.55296164    -0.55400
O14         O  0.14099318  0.63659952  0.42016919    -0.56600
C15         C  0.13888237  0.67386584  0.35479178     0.76100
O16         O  0.09193285  0.64587095  0.40012919    -0.57700
C17         C  0.13351814  0.62988052  0.44605833     0.76000
C18         C  0.16697866  0.70670658  0.44572962     0.78400
Cd19       Cd  0.13075756  0.66676548  0.41770779     1.37500
O20         O  0.13738092  0.65668971  0.36801367    -0.56600
O21         O  0.16878640  0.68982580  0.43787551    -0.55400
C22         C  0.08267892  0.65157344  0.41995457     0.78400
O23         O  0.14812846  0.70571084  0.44027937    -0.57700
O24         O  0.13789766  0.68862179  0.37081074    -0.56200
O25         O  0.12455917  0.64005419  0.45896421    -0.56200
O26         O  0.09568433  0.66473036  0.43983850    -0.55400
O27         O  0.37284669  0.85169849  0.92109130    -0.56600
C28         C  0.33087454  0.85276830  0.85752351     0.76100
O29         O  0.30483304  0.84564033  0.94654730    -0.57700
C30         C  0.37992061  0.86009922  0.94642072     0.76000
C31         C  0.35773876  0.90936700  0.92405010     0.78400
Cd32       Cd  0.34186564  0.86140529  0.91954781     1.37500
O33         O  0.34786057  0.85238944  0.86861416    -0.56600
O34         O  0.36298203  0.90087911  0.90270531    -0.55400
C35         C  0.30265359  0.82613226  0.95032084     0.78400
O36         O  0.34455632  0.89559409  0.94350865    -0.57700
O37         O  0.31850943  0.85635978  0.87519561    -0.56200
O38         O  0.36950138  0.86891914  0.95894351    -0.56200
O39         O  0.31816003  0.82308189  0.93953371    -0.55400
O40         O  0.13768524  0.65196332  0.12387836    -0.56600
C41         C  0.12953747  0.62559750  0.04936655     0.76100
O42         O  0.09367297  0.66074327  0.09204871    -0.57700
C43         C  0.13820518  0.66781702  0.13915550     0.76000
C44         C  0.16862306  0.70618645  0.05185865     0.78400
Cd45       Cd  0.13049917  0.66494656  0.07611395     1.37500
O46         O  0.12385519  0.62543169  0.07606487    -0.56600
O47         O  0.17042129  0.68946169  0.06076805    -0.55400
C48         C  0.08368768  0.65433965  0.06753223     0.78400
O49         O  0.14909603  0.70427115  0.05438201    -0.57700
O50         O  0.13602610  0.64395829  0.03518994    -0.56200
O51         O  0.13627922  0.68296603  0.12519219    -0.56200
O52         O  0.09566867  0.65418822  0.04618031    -0.55400
O53         O  0.13109778  0.49955428  0.57837971    -0.56600
C54         C  0.13584831  0.46782710  0.63972355     0.76100
O55         O  0.09406750  0.44184568  0.54757779    -0.57700
C56         C  0.13228867  0.50284240  0.55076498     0.76000
C57         C  0.16708520  0.45835886  0.55080327     0.78400
Cd58       Cd  0.12954921  0.46226907  0.57641281     1.37500
O59         O  0.12935126  0.47916021  0.62441102    -0.56600
O60         O  0.14707372  0.44136467  0.55155511    -0.55400
C61         C  0.08228275  0.42728238  0.56704976     0.78400
O62         O  0.16961446  0.47642677  0.56229935    -0.57700
O63         O  0.13994311  0.45405937  0.62582882    -0.56200
O64         O  0.13255835  0.48763340  0.53494966    -0.56200
O65         O  0.09264775  0.42758837  0.59038161    -0.55400
O66         O  0.36520974  0.49351119  0.41929241    -0.56600
C67         C  0.32293397  0.45739534  0.35766367     0.76100
O68         O  0.33593884  0.42367189  0.44435095    -0.57700
C69         C  0.37015590  0.49388541  0.44628376     0.76000
C70         C  0.29036994  0.44948252  0.44888634     0.78400
Cd71       Cd  0.33114648  0.45450749  0.41992240     1.37500
O72         O  0.34000107  0.47320049  0.37071706    -0.56600
O73         O  0.30664060  0.46849429  0.44041891    -0.55400
C74         C  0.34446704  0.41976184  0.42176979     0.78400
O75         O  0.29250147  0.43230690  0.44369468    -0.57700
O76         O  0.30908487  0.44077183  0.37356067    -0.56200
O77         O  0.35733866  0.47611527  0.46108731    -0.56200
O78         O  0.34614370  0.43126075  0.39895623    -0.55400
O79         O  0.13275338  0.47765203  0.86816321    -0.56600
C80         C  0.13117402  0.50034522  0.94434350     0.76100
O81         O  0.09499995  0.43248861  0.94354835    -0.57700
C82         C  0.13996720  0.46601236  0.85499623     0.76000
C83         C  0.16622051  0.45528309  0.94486421     0.78400
Cd84       Cd  0.13044248  0.46110584  0.91749116     1.37500
O85         O  0.12119631  0.48089778  0.95648993    -0.56600
O86         O  0.16815836  0.47460208  0.94056584    -0.55400
C87         C  0.08269907  0.42546391  0.92070777     0.78400
O88         O  0.14763894  0.43831543  0.93670465    -0.57700
O89         O  0.14093290  0.50179564  0.91989874    -0.56200
O90         O  0.14370271  0.45282017  0.87087092    -0.56200
O91         O  0.09261680  0.43394931  0.89644514    -0.55400
O92         O  0.34464602  0.47462423  0.12698425    -0.56600
C93         C  0.36952699  0.49343904  0.05384306     0.76100
O94         O  0.34139170  0.43146280  0.04903376    -0.57700
C95         C  0.32778290  0.46068444  0.14243290     0.76000
C96         C  0.29106577  0.45384115  0.05243551     0.78400
Cd97       Cd  0.33030964  0.45459540  0.07965630     1.37500
O98         O  0.37142132  0.48371359  0.07669370    -0.56600
O99         O  0.29313946  0.43625446  0.05209956    -0.55400
C100        C  0.33979461  0.41788281  0.06932635     0.78400
O101        O  0.30620612  0.47077303  0.06630059    -0.57700
O102        O  0.34975654  0.48518052  0.04309247    -0.56200
O103        O  0.31173638  0.44421069  0.12882850    -0.56200
O104        O  0.33184614  0.41984788  0.09371146    -0.55400
O105        O  0.51611900  0.85883010  0.37567772    -0.56600
C106        C  0.49120176  0.86382150  0.45422705     0.76100
O107        O  0.55366995  0.85420423  0.45440598    -0.57700
C108        C  0.53408630  0.86110384  0.36379051     0.76000
C109        C  0.56089892  0.91821520  0.42750752     0.78400
Cd110      Cd  0.53188205  0.86900405  0.42625319     1.37500
O111        O  0.49069509  0.85618417  0.42859508    -0.56600
O112        O  0.54214785  0.90785872  0.41399040    -0.55400
C113        C  0.53691977  0.83417924  0.45731604     0.78400
O114        O  0.56681756  0.90587602  0.44180693    -0.57700
O115        O  0.51041831  0.87374102  0.46691315    -0.56200
O116        O  0.55065781  0.86600347  0.38087297    -0.56200
O117        O  0.51835434  0.83042628  0.44584268    -0.55400
O118        O  0.49395376  0.62395522  0.58124211    -0.56600
C119        C  0.52337930  0.66681264  0.64398086     0.76100
O120        O  0.55588781  0.65221219  0.60371828    -0.57700
C121        C  0.49224088  0.62207395  0.55343030     0.76000
C122        C  0.53137128  0.70258332  0.55595437     0.78400
Cd123      Cd  0.52890673  0.66195748  0.58162716     1.37500
O124        O  0.50670769  0.65322584  0.62812809    -0.56600
O125        O  0.51301139  0.68529826  0.56406455    -0.55400
C126        C  0.56468453  0.65017357  0.58019602     0.78400
O127        O  0.54945168  0.70167665  0.55986789    -0.57700
O128        O  0.54222060  0.67890686  0.63079512    -0.56200
O129        O  0.50744399  0.63850821  0.53855975    -0.56200
O130        O  0.55787724  0.65469520  0.55642919    -0.55400
O131        O  0.52427036  0.86175735  0.13131969    -0.56600
C132        C  0.50763774  0.86812147  0.05669971     0.76100
O133        O  0.56712806  0.90665778  0.05647657    -0.57700
C134        C  0.53956393  0.86266495  0.14821873     0.76000
C135        C  0.55170542  0.83368625  0.06038385     0.78400
Cd136      Cd  0.54673048  0.87022110  0.08502656     1.37500
O137        O  0.51502931  0.87814966  0.08111914    -0.56600
O138        O  0.53428992  0.83036065  0.07480397    -0.55400
C139        C  0.58263342  0.91687772  0.07540269     0.78400
O140        O  0.56773675  0.85410237  0.05818152    -0.57700
O141        O  0.51821930  0.85898026  0.04543161    -0.56200
O142        O  0.55797776  0.86649826  0.13596837    -0.56200
O143        O  0.58228105  0.90522823  0.09742966    -0.55400
O144        O  0.51160800  0.65358052  0.87273458    -0.56600
C145        C  0.49100240  0.62382776  0.94870333     0.76100
O146        O  0.55201856  0.64615606  0.89988680    -0.57700
C147        C  0.52793278  0.67026531  0.85947451     0.76000
C148        C  0.53587294  0.70160682  0.95408682     0.78400
Cd149      Cd  0.53011891  0.66220346  0.92180155     1.37500
O150        O  0.48899575  0.63325670  0.92559488    -0.56600
O151        O  0.51667564  0.68469050  0.94811761    -0.55400
C152        C  0.56332672  0.64720621  0.92255244     0.78400
O153        O  0.55314532  0.70093308  0.94461910    -0.57700
O154        O  0.51094231  0.63183278  0.95886871    -0.56200
O155        O  0.54453673  0.68393858  0.87528212    -0.56200
O156        O  0.55981112  0.65575208  0.94540287    -0.55400
O157        O  0.86497896  0.37264737  0.92015292    -0.56600
C158        C  0.85959933  0.33366737  0.85500611     0.76100
O159        O  0.90578226  0.34319003  0.94035277    -0.57700
C160        C  0.87134894  0.37743505  0.94668363     0.76000
C161        C  0.83354876  0.29875216  0.94526880     0.78400
Cd162      Cd  0.87008751  0.33911656  0.91727153     1.37500
O163        O  0.86341902  0.35160810  0.86838656    -0.56600
O164        O  0.83118460  0.31521938  0.93672797    -0.55400
C165        C  0.91738010  0.34993609  0.91674129     0.78400
O166        O  0.85279202  0.30048526  0.94040630    -0.57700
O167        O  0.85951371  0.31808369  0.87061981    -0.56200
O168        O  0.87730812  0.36467532  0.95960628    -0.56200
O169        O  0.90706191  0.35105917  0.89420783    -0.55400
O170        O  0.63586232  0.12020293  0.07919576    -0.56600
C171        C  0.67722715  0.13844293  0.14211467     0.76100
O172        O  0.66345992  0.09442152  0.04868842    -0.57700
C173        C  0.63648080  0.12787214  0.05348840     0.76000
C174        C  0.71656481  0.16585412  0.05249658     0.78400
Cd175      Cd  0.67588165  0.12879036  0.07950224     1.37500
O176        O  0.66127266  0.13619736  0.12546691    -0.56600
O177        O  0.70026452  0.16806544  0.06224834    -0.55400
C178        C  0.66445882  0.08200680  0.06879771     0.78400
O179        O  0.71480035  0.14650442  0.05613767    -0.57700
O180        O  0.69324813  0.13690150  0.12985445    -0.56200
O181        O  0.65541617  0.13644811  0.04001055    -0.56200
O182        O  0.67238714  0.09157435  0.09328331    -0.55400
O183        O  0.85868768  0.35070810  0.62310234    -0.56600
C184        C  0.87115016  0.37780906  0.55098020     0.76100
O185        O  0.90652736  0.35204148  0.55129109    -0.57700
C186        C  0.85762732  0.33510650  0.63957759     0.76000
C187        C  0.83404515  0.29726629  0.54869480     0.78400
Cd188      Cd  0.86931829  0.33805387  0.57739678     1.37500
O189        O  0.86255042  0.35902164  0.53747837    -0.56600
O190        O  0.83065929  0.31299065  0.55759497    -0.55400
C191        C  0.91652129  0.34870172  0.57266746     0.78400
O192        O  0.85370747  0.30001326  0.55333101    -0.57700
O193        O  0.87885291  0.37822161  0.57655050    -0.56200
O194        O  0.86062408  0.32013652  0.62709863    -0.56200
O195        O  0.90444893  0.33925072  0.59525112    -0.55400
O196        O  0.65724010  0.14129026  0.36996875    -0.56600
C197        C  0.62847347  0.13318472  0.45125054     0.76100
O198        O  0.66657485  0.09860966  0.43973177    -0.57700
C199        C  0.67425025  0.14178580  0.35749019     0.76000
C200        C  0.70492559  0.17068480  0.44879080     0.78400
Cd201      Cd  0.66585529  0.13315289  0.42038200     1.37500
O202        O  0.63487301  0.14245450  0.42604644    -0.56600
O203        O  0.68847901  0.17218938  0.43814172    -0.55400
C204        C  0.64964049  0.08477653  0.42439807     0.78400
O205        O  0.70379395  0.15151206  0.44637068    -0.57700
O206        O  0.63936047  0.12418510  0.46200208    -0.56200
O207        O  0.68764655  0.13889057  0.37406055    -0.56200
O208        O  0.64130072  0.09343845  0.40721249    -0.55400
O209        O  0.51054231  0.13542749  0.92398803    -0.56600
C210        C  0.47069438  0.13459374  0.85878060     0.76100
O211        O  0.43902906  0.08682675  0.94309430    -0.57700
C212        C  0.50918056  0.12543526  0.94822029     0.76000
C213        C  0.46466955  0.15894530  0.95189561     0.78400
Cd214      Cd  0.46967591  0.12397357  0.92123064     1.37500
O215        O  0.48749517  0.13468363  0.87123043    -0.56600
O216        O  0.48347118  0.16126224  0.94327484    -0.55400
C217        C  0.43879603  0.07529287  0.92097431     0.78400
O218        O  0.44710425  0.13991538  0.94653160    -0.57700
O219        O  0.45393726  0.13055958  0.87529513    -0.56200
O220        O  0.48960168  0.11469535  0.96001596    -0.56200
O221        O  0.45183462  0.08631421  0.89976402    -0.55400
O222        O  0.48192527  0.33788737  0.11890349    -0.56600
C223        C  0.49759322  0.36384384  0.04262937     0.76100
O224        O  0.43877469  0.28713345  0.04818323    -0.57700
C225        C  0.46802839  0.32029701  0.13334999     0.76000
C226        C  0.42341192  0.33580109  0.07039429     0.78400
Cd227      Cd  0.46025381  0.32534340  0.07192510     1.37500
O228        O  0.49376720  0.36427106  0.06994836    -0.56600
O229        O  0.42838922  0.32874588  0.09344822    -0.55400
C230        C  0.45595448  0.28450311  0.04537804     0.78400
O231        O  0.43445220  0.33680005  0.04733263    -0.57700
O232        O  0.48428609  0.34575762  0.02905024    -0.56200
O233        O  0.45143677  0.30496718  0.11912301    -0.56200
O234        O  0.47472806  0.30056070  0.05460569    -0.55400
O235        O  0.48315274  0.13688130  0.62588935    -0.56600
C236        C  0.50142240  0.13646078  0.54925289     0.76100
O237        O  0.44508847  0.09421052  0.55230394    -0.57700
C238        C  0.46852262  0.13728867  0.64290567     0.76000
C239        C  0.45460917  0.16607763  0.55419532     0.78400
Cd240      Cd  0.46125288  0.13052359  0.57950387     1.37500
O241        O  0.49531992  0.12653056  0.57411038    -0.56600
O242        O  0.47168425  0.17030358  0.56992083    -0.55400
C243        C  0.42737847  0.08311359  0.56788756     0.78400
O244        O  0.43970675  0.14529496  0.55129611    -0.57700
O245        O  0.48925066  0.14406549  0.53860316    -0.56200
O246        O  0.45065562  0.13496141  0.63074440    -0.56200
O247        O  0.42443541  0.09405689  0.58833414    -0.55400
O248        O  0.49229718  0.34448825  0.36254872    -0.56600
C249        C  0.50764867  0.37255541  0.43932518     0.76100
O250        O  0.43581030  0.33304309  0.43001606    -0.57700
C251        C  0.47771111  0.32769189  0.34786908     0.76000
C252        C  0.46704584  0.29539368  0.44288110     0.78400
Cd253      Cd  0.47090772  0.33382929  0.40977091     1.37500
O254        O  0.51025213  0.36675072  0.41371062    -0.56600
O255        O  0.48547291  0.31408265  0.44042195    -0.55400
C256        C  0.43493319  0.34533606  0.40954683     0.78400
O257        O  0.45011431  0.29372191  0.42884058    -0.57700
O258        O  0.48810533  0.36081179  0.45093530    -0.56200
O259        O  0.46055038  0.31281152  0.36210788    -0.56200
O260        O  0.45016439  0.35176208  0.38985724    -0.55400
O261        O  0.63625528  0.49637097  0.93258487    -0.56600
C262        C  0.67377233  0.53413387  0.86709356     0.76100
O263        O  0.65030260  0.55884603  0.91024164    -0.57700
C264        C  0.62873880  0.49820994  0.95747947     0.76000
C265        C  0.70786151  0.54281810  0.95982880     0.78400
Cd266      Cd  0.66717406  0.53687487  0.92994288     1.37500
O267        O  0.65685443  0.51851779  0.88091672    -0.56600
O268        O  0.70729822  0.55952101  0.94815329    -0.55400
C269        C  0.65144907  0.56954051  0.93351027     0.78400
O270        O  0.69001371  0.52362898  0.95731787    -0.57700
O271        O  0.68841160  0.55040623  0.88250933    -0.56200
O272        O  0.63905466  0.51758588  0.96943836    -0.56200
O273        O  0.66096964  0.56613253  0.95541162    -0.55400
O274        O  0.87465616  0.50300399  0.08775816    -0.56600
C275        C  0.86346435  0.53293854  0.14963750     0.76100
O276        O  0.90759341  0.57083963  0.10415053    -0.57700
C277        C  0.87102144  0.49917708  0.06041502     0.76000
C278        C  0.83342318  0.54083685  0.06355081     0.78400
Cd279      Cd  0.87163741  0.53795526  0.08716309     1.37500
O280        O  0.86593428  0.51843873  0.13496679    -0.56600
O281        O  0.83118548  0.52383992  0.07793495    -0.55400
C282        C  0.91865747  0.57406400  0.08045259     0.78400
O283        O  0.85360695  0.55720988  0.06015089    -0.57700
O284        O  0.86418090  0.54935815  0.13529087    -0.56200
O285        O  0.86736506  0.51296487  0.04580207    -0.56200
O286        O  0.90770661  0.56154601  0.05897128    -0.55400
O287        O  0.64900190  0.51302098  0.63634866    -0.56600
C288        C  0.62452262  0.49433001  0.55947781     0.76100
O289        O  0.65188848  0.56256928  0.60469765    -0.57700
C290        C  0.66537886  0.52800499  0.65132379     0.76000
C291        C  0.70284898  0.53911786  0.56193553     0.78400
Cd292      Cd  0.66129851  0.53346196  0.58834406     1.37500
O293        O  0.62314115  0.49828147  0.58648724    -0.56600
O294        O  0.68710933  0.52034957  0.57189192    -0.55400
C295        C  0.64785642  0.56765946  0.57944905     0.78400
O296        O  0.70021339  0.55621050  0.56533031    -0.57700
O297        O  0.64278924  0.50808167  0.54629218    -0.56200
O298        O  0.68045972  0.54502770  0.63708970    -0.56200
O299        O  0.65104005  0.55781119  0.55788174    -0.55400
O300        O  0.86073027  0.52577973  0.37861382    -0.56600
C301        C  0.86822191  0.50491813  0.45257376     0.76100
O302        O  0.90787272  0.56575659  0.40772184    -0.57700
C303        C  0.86156995  0.54216543  0.36410117     0.76000
C304        C  0.83410994  0.55055613  0.45535372     0.78400
Cd305      Cd  0.86934297  0.54460389  0.42696112     1.37500
O306        O  0.87915615  0.52429064  0.46450760    -0.56600
O307        O  0.85286797  0.56776067  0.44793666    -0.55400
C308        C  0.91736735  0.57675691  0.43082288     0.78400
O309        O  0.83191908  0.53138083  0.44943588    -0.57700
O310        O  0.85762210  0.50380931  0.42909271    -0.56200
O311        O  0.86508149  0.55948391  0.37875161    -0.56200
O312        O  0.90446810  0.57374645  0.45272978    -0.55400
C313        C  0.74864249  0.53199783  0.52153455     0.17200
C314        C  0.76115167  0.52323141  0.50798387    -0.31800
C315        C  0.78185274  0.53862251  0.49457362     0.21600
C316        C  0.78997046  0.56186840  0.49452416     0.03800
C317        C  0.77724939  0.57072665  0.50793597    -0.21600
C318        C  0.75635165  0.55518417  0.52146786     0.13000
S319        S  0.72328233  0.51574750  0.53910484    -0.05200
C320        C  0.72263402  0.54027316  0.54655762    -0.08700
C321        C  0.74132269  0.56008505  0.53579853    -0.25300
S322        S  0.81603015  0.57745468  0.47744886    -0.02500
C323        C  0.81563853  0.55222534  0.47041555    -0.16000
C324        C  0.79632885  0.53304185  0.48074232    -0.13900
H325        H  0.75504003  0.50510536  0.50803542     0.21400
H326        H  0.78340020  0.58885190  0.50797893     0.17500
H327        H  0.74370966  0.57702201  0.53822053     0.20000
H328        H  0.79313960  0.51578398  0.47858009     0.13300
C329        C  0.85850816  0.52244746  0.23323379     0.17200
C330        C  0.85833056  0.51478367  0.26206754    -0.31800
C331        C  0.85795588  0.52814470  0.28539693     0.21600
C332        C  0.85762233  0.54816265  0.28031342     0.03800
C333        C  0.85742271  0.55562853  0.25147207    -0.21600
C334        C  0.85797856  0.54236708  0.22814386     0.13000
S335        S  0.86036485  0.50944530  0.20197362    -0.05200
C336        C  0.86046594  0.53110895  0.18185835    -0.08700
C337        C  0.85895748  0.54735016  0.19866320    -0.25300
S338        S  0.85847343  0.56254797  0.31162063    -0.02500
C339        C  0.85916575  0.54129668  0.33177027    -0.16000
C340        C  0.85868859  0.52403758  0.31490194    -0.13900
H341        H  0.85897166  0.49938571  0.26613843     0.21400
H342        H  0.85737156  0.57135936  0.24738870     0.17500
H343        H  0.85919160  0.56234272  0.18981261     0.20000
H344        H  0.85946973  0.50959428  0.32371876     0.13300
C345        C  0.68472302  0.54197139  0.78316678     0.17200
C346        C  0.69264357  0.55004741  0.75446564    -0.31800
C347        C  0.67920439  0.53709664  0.73063142     0.21600
C348        C  0.65884333  0.51695971  0.73518453     0.03800
C349        C  0.65095283  0.50888753  0.76383907    -0.21600
C350        C  0.66433064  0.52185822  0.78763157     0.13000
S351        S  0.69804212  0.55547597  0.81508468    -0.05200
C352        C  0.67584789  0.53380984  0.83463225    -0.08700
C353        C  0.65918211  0.51707631  0.81706066    -0.25300
S354        S  0.64471321  0.50402615  0.70348521    -0.02500
C355        C  0.66635018  0.52603328  0.68374268    -0.16000
C356        C  0.68362133  0.54237582  0.70112541    -0.13900
H357        H  0.70845899  0.56588229  0.75086930     0.21400
H358        H  0.63494969  0.49330981  0.76743743     0.17500
H359        H  0.64382708  0.50245982  0.82536303     0.20000
H360        H  0.69838483  0.55758435  0.69264499     0.13300
C361        C  0.76471936  0.55674079  0.99650658     0.17200
C362        C  0.78749542  0.56622028  0.00570007    -0.31800
C363        C  0.79299847  0.55294017  0.02414979     0.21600
C364        C  0.77645631  0.53137682  0.03338576     0.03800
C365        C  0.75375040  0.52199254  0.02436027    -0.21600
C366        C  0.74835293  0.53505517  0.00553233     0.13000
S367        S  0.75452743  0.56966027  0.97343416    -0.05200
C368        C  0.72806901  0.54542240  0.97567389    -0.08700
C369        C  0.72737393  0.52845041  0.99358181    -0.25300
S370        S  0.78644883  0.51759880  0.05488072    -0.02500
C371        C  0.81335523  0.54091579  0.05112840    -0.16000
C372        C  0.81430802  0.55857250  0.03437131    -0.13900
H373        H  0.80041351  0.58301713  0.99837845     0.21400
H374        H  0.74091302  0.50502914  0.03126103     0.17500
H375        H  0.71227709  0.51209283  0.99764218     0.20000
H376        H  0.82977878  0.57438088  0.02936165     0.13300
C377        C  0.56123733  0.42368142  0.47150118     0.17200
C378        C  0.58297779  0.44233263  0.47681437    -0.31800
C379        C  0.58740726  0.45188855  0.50515586     0.21600
C380        C  0.57096755  0.44329249  0.52727077     0.03800
C381        C  0.54918626  0.42473770  0.52189855    -0.21600
C382        C  0.54474394  0.41519099  0.49355412     0.13000
S383        S  0.55257345  0.40935807  0.43880781    -0.05200
C384        C  0.52640822  0.39179998  0.45498979    -0.08700
C385        C  0.52469988  0.39696585  0.48416398    -0.25300
S386        S  0.57976876  0.45727770  0.56017845    -0.02500
C387        C  0.60582241  0.47501099  0.54390014    -0.16000
C388        C  0.60743458  0.47010063  0.51457084    -0.13900
H389        H  0.59590185  0.44905661  0.45964387     0.21400
H390        H  0.53627900  0.41799650  0.53908016     0.17500
H391        H  0.50966210  0.38769198  0.49789772     0.20000
H392        H  0.62243322  0.47948131  0.50078858     0.13300
C393        C  0.44451698  0.20777672  0.50763376     0.17200
C394        C  0.43703911  0.21825345  0.48717025    -0.31800
C395        C  0.45129973  0.24164750  0.48173442     0.21600
C396        C  0.47194024  0.25402876  0.49625507     0.03800
C397        C  0.47925184  0.24364097  0.51690749    -0.21600
C398        C  0.46515295  0.22028032  0.52209909     0.13000
S399        S  0.43049436  0.17935543  0.51611714    -0.05200
C400        C  0.45277518  0.18442982  0.53919987    -0.08700
C401        C  0.46991662  0.20702442  0.54030029    -0.25300
S402        S  0.48721538  0.28193925  0.48601868    -0.02500
C403        C  0.46569217  0.27701089  0.46172812    -0.16000
C404        C  0.44750962  0.25483665  0.46194900    -0.13900
H405        H  0.42108139  0.20853379  0.47558852     0.21400
H406        H  0.49549225  0.25328275  0.52802864     0.17500
H407        H  0.48546166  0.21332578  0.55303320     0.20000
H408        H  0.43258239  0.24866230  0.44812614     0.13300
C409        C  0.57929005  0.45356994  0.00464399     0.17200
C410        C  0.56359843  0.44136319  0.02716830    -0.31800
C411        C  0.54673360  0.41889042  0.02122056     0.21600
C412        C  0.54535393  0.40907449  0.99392465     0.03800
C413        C  0.56105303  0.42129320  0.97137090    -0.21600
C414        C  0.57811362  0.44369256  0.97745366     0.13000
S415        S  0.60114727  0.48091973  0.00767705    -0.05200
C416        C  0.60901378  0.47899959  0.97205688    -0.08700
C417        C  0.59520830  0.45820631  0.95863938    -0.25300
S418        S  0.52365583  0.38158766  0.99116108    -0.02500
C419        C  0.51655759  0.38325380  0.02728033    -0.16000
C420        C  0.53027135  0.40413191  0.04049259    -0.13900
H421        H  0.56460764  0.44899481  0.04849128     0.21400
H422        H  0.56012668  0.41361941  0.95012703     0.17500
H423        H  0.59751727  0.45397473  0.93635171     0.20000
H424        H  0.52834906  0.40826033  0.06302082     0.13300
C425        C  0.46376550  0.30818781  0.21654229     0.17200
C426        C  0.45611962  0.30000453  0.24520828    -0.31800
C427        C  0.46927006  0.31330704  0.26890703     0.21600
C428        C  0.48936536  0.33369766  0.26425965     0.03800
C429        C  0.49711896  0.34180694  0.23555352    -0.21600
C430        C  0.48375139  0.32867802  0.21184795     0.13000
S431        S  0.44936980  0.29529665  0.18507267    -0.05200
C432        C  0.47023760  0.31791205  0.16531326    -0.08700
C433        C  0.48761218  0.33433818  0.18240716    -0.25300
S434        S  0.50224830  0.34785233  0.29593084    -0.02500
C435        C  0.48019292  0.32623803  0.31567887    -0.16000
C436        C  0.46394685  0.30890272  0.29836449    -0.13900
H437        H  0.44024867  0.28423292  0.24888913     0.21400
H438        H  0.51256147  0.35795945  0.23187794     0.17500
H439        H  0.50183280  0.34994045  0.17386489     0.20000
H440        H  0.44861514  0.29426202  0.30681754     0.13300
C441        C  0.45992175  0.13970637  0.77640135     0.17200
C442        C  0.45016457  0.13897861  0.74882739    -0.31800
C443        C  0.46276651  0.14042469  0.72344454     0.21600
C444        C  0.48432689  0.14284610  0.72538924     0.03800
C445        C  0.49424309  0.14389560  0.75300977    -0.21600
C446        C  0.48145985  0.14208214  0.77843482     0.13000
S447        S  0.44664180  0.13658365  0.80963990    -0.05200
C448        C  0.47020014  0.13823791  0.82662795    -0.08700
C449        C  0.48750879  0.14136286  0.80725151    -0.25300
S450        S  0.49634679  0.14323911  0.69194474    -0.02500
C451        C  0.47199751  0.13993404  0.67517620    -0.16000
C452        C  0.45565807  0.13885114  0.69472145    -0.13900
H453        H  0.43317221  0.13676386  0.74722117     0.21400
H454        H  0.51094722  0.14545106  0.75460490     0.17500
H455        H  0.50335058  0.14231222  0.81382381     0.20000
H456        H  0.43917054  0.13646336  0.68828317     0.13300
C457        C  0.47340716  0.21316606  0.99008544     0.17200
C458        C  0.48271635  0.23493665  0.00224835    -0.31800
C459        C  0.46761365  0.24178239  0.01274246     0.21600
C460        C  0.44417351  0.22758523  0.01129311     0.03800
C461        C  0.43479314  0.20555462  0.99941336    -0.21600
C462        C  0.44999543  0.19868670  0.98876473     0.13000
S463        S  0.48914880  0.20236340  0.97537143    -0.05200
C464        C  0.46408859  0.17785670  0.96724247    -0.08700
C465        C  0.44447406  0.17819487  0.97573284    -0.25300
S466        S  0.42890736  0.23965923  0.02448744    -0.02500
C467        C  0.45442759  0.26393567  0.03211497    -0.16000
C468        C  0.47357376  0.26251263  0.02479022    -0.13900
H469        H  0.50102978  0.24620470  0.00316712     0.21400
H470        H  0.41651279  0.19440736  0.99820312     0.17500
H471        H  0.42724495  0.16443037  0.97222313     0.20000
H472        H  0.49102393  0.27608549  0.02782092     0.13300
C473        C  0.58034920  0.12746955  0.50185863     0.17200
C474        C  0.56453258  0.12237040  0.52471877    -0.31800
C475        C  0.54986092  0.13131008  0.52268109     0.21600
C476        C  0.55079877  0.14472562  0.49891628     0.03800
C477        C  0.56669413  0.14988944  0.47601341    -0.21600
C478        C  0.58140888  0.14091969  0.47806168     0.13000
S479        S  0.59964715  0.11828666  0.50047638    -0.05200
C480        C  0.60940662  0.13277517  0.46751185    -0.08700
C481        C  0.59805706  0.14397259  0.45815280    -0.25300
S482        S  0.53096386  0.15331793  0.50033396    -0.02500
C483        C  0.52134316  0.13859026  0.53323220    -0.16000
C484        C  0.53311327  0.12785910  0.54250190    -0.13900
H485        H  0.56364996  0.11182121  0.54326232     0.21400
H486        H  0.56748114  0.16032240  0.45738484     0.17500
H487        H  0.60191124  0.15394780  0.43804727     0.20000
H488        H  0.52926487  0.11761388  0.56236526     0.13300
C489        C  0.87759322  0.43496113  0.52616719     0.17200
C490        C  0.88246071  0.45757372  0.52370392    -0.31800
C491        C  0.87484825  0.46370185  0.49835170     0.21600
C492        C  0.86290438  0.44802310  0.47641390     0.03800
C493        C  0.85812476  0.42542819  0.47881395    -0.21600
C494        C  0.86574453  0.41929995  0.50417155     0.13000
S495        S  0.88508193  0.42410270  0.55537868    -0.05200
C496        C  0.87213140  0.39817121  0.53780175    -0.08700
C497        C  0.86261448  0.39814361  0.51068425    -0.25300
S498        S  0.85492303  0.45877645  0.44756695    -0.02500
C499        C  0.86784947  0.48468840  0.46520975    -0.16000
C500        C  0.87780842  0.48480979  0.49199886    -0.13900
H501        H  0.89169390  0.46982689  0.54084910     0.21400
H502        H  0.84879973  0.41314815  0.46173118     0.17500
H503        H  0.85373123  0.38340334  0.49661748     0.20000
H504        H  0.88664031  0.49951964  0.50612537     0.13300
C505        C  0.74909226  0.22638848  0.48548373     0.17200
C506        C  0.76085353  0.24821449  0.49770853    -0.31800
C507        C  0.78220220  0.25514003  0.51036123     0.21600
C508        C  0.79163214  0.24108083  0.51057153     0.03800
C509        C  0.77978136  0.21911566  0.49840345    -0.21600
C510        C  0.75822759  0.21206787  0.48597761     0.13000
S511        S  0.72296735  0.21502246  0.46932064    -0.05200
C512        C  0.72401121  0.19048060  0.46331483    -0.08700
C513        C  0.74381705  0.19129199  0.47332863    -0.25300
S514        S  0.81796903  0.25299773  0.52672986    -0.02500
C515        C  0.81601498  0.27698830  0.53360183    -0.16000
C516        C  0.79601602  0.27565164  0.52363437    -0.13900
H517        H  0.75361037  0.25931211  0.49747039     0.21400
H518        H  0.78698717  0.20802527  0.49869911     0.17500
H519        H  0.74745775  0.17752443  0.47144178     0.20000
H520        H  0.79183724  0.28907409  0.52585251     0.13300
C521        C  0.57887218  0.11897699  0.02614484     0.17200
C522        C  0.55590271  0.11273502  0.02228163    -0.31800
C523        C  0.55007469  0.12010672  0.99640568     0.21600
C524        C  0.56637623  0.13304703  0.97528411     0.03800
C525        C  0.58927917  0.13907993  0.97900782    -0.21600
C526        C  0.59511275  0.13177569  0.00489059     0.13000
S527        S  0.58952895  0.11212149  0.05619734    -0.05200
C528        C  0.61610978  0.12653503  0.03985085    -0.08700
C529        C  0.61650135  0.13609808  0.01258328    -0.25300
S530        S  0.55601092  0.14076024  0.94576129    -0.02500
C531        C  0.52938196  0.12637352  0.96193235    -0.16000
C532        C  0.52876334  0.11614527  0.98880655    -0.13900
H533        H  0.54316484  0.10272360  0.03882501     0.21400
H534        H  0.60203312  0.14918202  0.96254519     0.17500
H535        H  0.63162884  0.14569698  0.99910575     0.20000
H536        H  0.51357251  0.10649534  0.00218056     0.13300
C537        C  0.66623430  0.14414923  0.22409630     0.17200
C538        C  0.65649109  0.14389487  0.25158106    -0.31800
C539        C  0.66902199  0.14549391  0.27701502     0.21600
C540        C  0.69045651  0.14758819  0.27515478     0.03800
C541        C  0.70034707  0.14819089  0.24763670    -0.21600
C542        C  0.68765519  0.14620727  0.22220334     0.13000
S543        S  0.65311731  0.14088725  0.19085105    -0.05200
C544        C  0.67659398  0.14203257  0.17414070    -0.08700
C545        C  0.69373445  0.14506571  0.19354274    -0.25300
S546        S  0.70228651  0.14788719  0.30858513    -0.02500
C547        C  0.67803735  0.14496999  0.32529080    -0.16000
C548        C  0.66187994  0.14417440  0.30574112    -0.13900
H549        H  0.63960447  0.14189461  0.25309624     0.21400
H550        H  0.71694526  0.14947424  0.24614873     0.17500
H551        H  0.70953424  0.14580790  0.18710265     0.20000
H552        H  0.64543661  0.14189715  0.31215932     0.13300
C553        C  0.86913781  0.42921503  0.97603080     0.17200
C554        C  0.86647389  0.44823092  0.97978900    -0.31800
C555        C  0.86940196  0.45726857  0.00824137     0.21600
C556        C  0.87484815  0.44791586  0.03199130     0.03800
C557        C  0.87769939  0.42895750  0.02819241    -0.21600
C558        C  0.87468026  0.41984638  0.99967899     0.13000
S559        S  0.86560457  0.41541283  0.94337264    -0.05200
C560        C  0.87165536  0.39677079  0.96168410    -0.08700
C561        C  0.87626775  0.40123161  0.99152197    -0.25300
S562        S  0.87753284  0.46146957  0.06475681    -0.02500
C563        C  0.87133513  0.47992193  0.04609749    -0.16000
C564        C  0.86736695  0.47560779  0.01619801    -0.13900
H565        H  0.86213130  0.45556490  0.96136848     0.21400
H566        H  0.88192811  0.42155483  0.04664389     0.17500
H567        H  0.88023115  0.39120219  0.00649488     0.20000
H568        H  0.86333362  0.48547061  0.00102053     0.13300
C569        C  0.85280279  0.34414618  0.72247502     0.17200
C570        C  0.85324566  0.35310388  0.75055934    -0.31800
C571        C  0.85386824  0.34083261  0.77529254     0.21600
C572        C  0.85370066  0.32040687  0.77213623     0.03800
C573        C  0.85315286  0.31143548  0.74413640    -0.21600
C574        C  0.85286239  0.32382630  0.71945826     0.13000
S575        S  0.85341896  0.35702274  0.68965700    -0.05200
C576        C  0.85411121  0.33496204  0.67175114    -0.08700
C577        C  0.85355131  0.31844678  0.69045128    -0.25300
S578        S  0.85514955  0.30834162  0.80457724    -0.02500
C579        C  0.85622961  0.33110394  0.82278996    -0.16000
C580        C  0.85536723  0.34711871  0.80441404    -0.13900
H581        H  0.85359284  0.36915311  0.75299373     0.21400
H582        H  0.85343328  0.29567259  0.74167613     0.17500
H583        H  0.85440929  0.30365749  0.68323307     0.20000
H584        H  0.85624367  0.36268092  0.81189109     0.13300
C585        C  0.78121456  0.25282724  0.98692521     0.17200
C586        C  0.76064298  0.24041521  0.00238843    -0.31800
C587        C  0.75542620  0.21914373  0.01389573     0.21600
C588        C  0.76986594  0.21035569  0.00995593     0.03800
C589        C  0.79062056  0.22288861  0.99458379    -0.21600
C590        C  0.79598435  0.24438041  0.98331647     0.13000
S591        S  0.79052184  0.27903419  0.97160592    -0.05200
C592        C  0.81485839  0.27897572  0.96055059    -0.08700
C593        C  0.81545710  0.25941816  0.96822253    -0.25300
S594        S  0.75979450  0.18378480  0.02506839    -0.02500
C595        C  0.73607504  0.18480127  0.03703233    -0.16000
C596        C  0.73619586  0.20469618  0.02952762    -0.13900
H597        H  0.74918596  0.24709068  0.00539009     0.21400
H598        H  0.80206529  0.21622065  0.99158164     0.17500
H599        H  0.82941356  0.25645618  0.96322712     0.20000
H600        H  0.72265310  0.20825528  0.03478749     0.13300
C601        C  0.60114613  0.62082900  0.90956656     0.17200
C602        C  0.61204667  0.60971375  0.89768834    -0.31800
C603        C  0.62292226  0.60222463  0.91730952     0.21600
C604        C  0.62329919  0.60590500  0.94745716     0.03800
C605        C  0.61257892  0.61730353  0.95935469    -0.21600
C606        C  0.60139213  0.62455433  0.93970642     0.13000
S607        S  0.58569976  0.62966821  0.88948485    -0.05200
C608        C  0.57928699  0.63841127  0.92197097    -0.08700
C609        C  0.58895730  0.63484581  0.94696870    -0.25300
S610        S  0.63665597  0.59449172  0.96749452    -0.02500
C611        C  0.64150829  0.58452474  0.93486409    -0.16000
C612        C  0.63332194  0.59002236  0.90998860    -0.13900
H613        H  0.61155561  0.60650267  0.87421032     0.21400
H614        H  0.61248116  0.61990970  0.98295153     0.17500
H615        H  0.58636420  0.63882306  0.96930733     0.20000
H616        H  0.63439417  0.58483303  0.88772995     0.13300
C617        C  0.62553519  0.98038618  0.08351913     0.17200
C618        C  0.64002696  0.00207932  0.09496817    -0.36600
C619        C  0.64399114  0.02093779  0.07775530     0.21600
C620        C  0.63440262  0.01835639  0.04999153     0.03800
C621        C  0.61995154  0.99659959  0.03842902    -0.21600
C622        C  0.61552436  0.97769438  0.05601849     0.13000
S623        S  0.61723246  0.95557236  0.10219904    -0.05200
C624        C  0.59951625  0.94130924  0.07312960    -0.08700
C625        C  0.60053447  0.95521215  0.04987353    -0.25300
S626        S  0.64049784  0.04344230  0.03329315    -0.02500
C627        C  0.65566699  0.05748233  0.06434455    -0.16000
C628        C  0.65619310  0.04331408  0.08610070    -0.13900
H629        H  0.64729004  0.00416372  0.11682008     0.21400
H630        H  0.61190909  0.99451447  0.01712337     0.17500
H631        H  0.59013786  0.94930456  0.03019551     0.20000
H632        H  0.66428381  0.04900501  0.10741562     0.13300
C633        C  0.53014041  0.74596751  0.99963608     0.17200
C634        C  0.52197589  0.75807094  0.01553127    -0.31800
C635        C  0.53791986  0.77972431  0.02562591     0.21600
C636        C  0.56107994  0.78910795  0.02014435     0.03800
C637        C  0.56935198  0.77678501  0.00455505    -0.21600
C638        C  0.55329352  0.75498732  0.99437634     0.13000
S639        S  0.51320070  0.71978931  0.98485879    -0.05200
C640        C  0.53743671  0.72069935  0.97134945    -0.08700
C641        C  0.55764560  0.74041174  0.97818783    -0.25300
S642        S  0.57733678  0.81630850  0.03304693    -0.02500
C643        C  0.55259531  0.81467466  0.04615907    -0.16000
C644        C  0.53301438  0.79416136  0.04074686    -0.13900
H645        H  0.50385572  0.75100675  0.01952460     0.21400
H646        H  0.58739497  0.78398495  0.00016067     0.17500
H647        H  0.57446817  0.74394472  0.97148011     0.20000
H648        H  0.51589941  0.79024562  0.04680848     0.13300
C649        C  0.60440507  0.62626062  0.59533052     0.17200
C650        C  0.61622657  0.61653086  0.60856572    -0.31800
C651        C  0.62436557  0.60555688  0.59019776     0.21600
C652        C  0.62128990  0.60463768  0.55986045     0.03800
C653        C  0.60985162  0.61483458  0.54649955    -0.21600
C654        C  0.60130695  0.62548803  0.56498865     0.13000
S655        S  0.59128317  0.63819620  0.61430990    -0.05200
C656        C  0.58130935  0.64216755  0.58112556    -0.08700
C657        C  0.58818472  0.63482842  0.55663154    -0.25300
S658        S  0.63106471  0.58900700  0.54184982    -0.02500
C659        C  0.63915316  0.58355933  0.57563046    -0.16000
C660        C  0.63471034  0.59364879  0.59932495    -0.13900
H661        H  0.61823064  0.61674519  0.63230273     0.21400
H662        H  0.60700238  0.61377772  0.52287056     0.17500
H663        H  0.58295971  0.63528975  0.53414809     0.20000
H664        H  0.63805406  0.59163397  0.62218851     0.13300
C665        C  0.51074596  0.66076204  0.72729961     0.17200
C666        C  0.50155647  0.65331549  0.75564613    -0.31800
C667        C  0.51558822  0.66435341  0.77990474     0.21600
C668        C  0.53773344  0.68217466  0.77613691     0.03800
C669        C  0.54693758  0.68961108  0.74778244    -0.21600
C670        C  0.53296850  0.67842735  0.72351577     0.13000
S671        S  0.49676468  0.64900200  0.69508837    -0.05200
C672        C  0.52119020  0.66786210  0.67626248    -0.08700
C673        C  0.53906062  0.68258356  0.69425452    -0.25300
S674        S  0.55212202  0.69299532  0.80838626    -0.02500
C675        C  0.52813033  0.67317026  0.82717303    -0.16000
C676        C  0.50999346  0.65907189  0.80914972    -0.13900
H677        H  0.48432526  0.63930321  0.75865847     0.21400
H678        H  0.56436062  0.70331530  0.74476470     0.17500
H679        H  0.55582337  0.69527962  0.68636532     0.20000
H680        H  0.49375338  0.64539047  0.81699667     0.13300
C681        C  0.58909135  0.98256826  0.41434727     0.17200
C682        C  0.59413240  0.00418714  0.40468833    -0.31800
C683        C  0.61323778  0.02299478  0.41664593     0.21600
C684        C  0.62693832  0.02057108  0.43737165     0.03800
C685        C  0.62199871  0.99873874  0.44692097    -0.21600
C686        C  0.60267295  0.97974764  0.43490363     0.13000
S687        S  0.56615223  0.95798681  0.40279787    -0.05200
C688        C  0.57460985  0.94330465  0.42575353    -0.08700
C689        C  0.59447318  0.95703971  0.44148518    -0.25300
S690        S  0.64898208  0.04603809  0.44961481    -0.02500
C691        C  0.63946818  0.05980600  0.42638849    -0.16000
C692        C  0.62033676  0.04526955  0.41024060    -0.13900
H693        H  0.58340192  0.00627696  0.38869452     0.21400
H694        H  0.63254676  0.99666891  0.46316534     0.17500
H695        H  0.60226002  0.95081905  0.45701796     0.20000
H696        H  0.61175215  0.05074067  0.39483615     0.13300
C697        C  0.54790244  0.86012947  0.28162794     0.17200
C698        C  0.55845670  0.86240254  0.25413045    -0.31800
C699        C  0.54566488  0.86006786  0.22867612     0.21600
C700        C  0.52328571  0.85546876  0.23051337     0.03800
C701        C  0.51267260  0.85299348  0.25799365    -0.21600
C702        C  0.52552699  0.85553999  0.28343272     0.13000
S703        S  0.56086169  0.86354378  0.31506962    -0.05200
C704        C  0.53592815  0.85889719  0.33166930    -0.08700
C705        C  0.51853264  0.85473100  0.31209728    -0.25300
S706        S  0.51092441  0.85405613  0.19714272    -0.02500
C707        C  0.53617704  0.85979528  0.18046115    -0.16000
C708        C  0.55313862  0.86249497  0.19997342    -0.13900
H709        H  0.57603507  0.86625648  0.25264281     0.21400
H710        H  0.49528553  0.84965726  0.25948333     0.17500
H711        H  0.50186802  0.85189107  0.31846307     0.20000
H712        H  0.57019165  0.86648428  0.19352093     0.13300
C713        C  0.54938897  0.79154141  0.49814200     0.17200
C714        C  0.55911408  0.77971902  0.51176284    -0.31800
C715        C  0.54427576  0.75746936  0.52202810     0.21600
C716        C  0.52082178  0.74764837  0.51917329     0.03800
C717        C  0.51114572  0.75939287  0.50551719    -0.21600
C718        C  0.52594541  0.78143116  0.49493162     0.13000
S719        S  0.56429310  0.81858976  0.48392622    -0.05200
C720        C  0.53867017  0.81604261  0.47319811    -0.08700
C721        C  0.51972273  0.79531675  0.48054035    -0.25300
S722        S  0.50561938  0.72066135  0.53293128    -0.02500
C723        C  0.53104460  0.72224135  0.54229794    -0.16000
C724        C  0.55029886  0.74288731  0.53525691    -0.13900
H725        H  0.57741942  0.78745006  0.51404925     0.21400
H726        H  0.49281601  0.75158795  0.50303422     0.17500
H727        H  0.50223740  0.79064487  0.47563059     0.20000
H728        H  0.56767369  0.74693884  0.53941665     0.13300
C729        C  0.38107465  0.35699976  0.08417236     0.17200
C730        C  0.36707578  0.36459722  0.09673310    -0.31800
C731        C  0.36136204  0.37810758  0.07910796     0.21600
C732        C  0.36898902  0.38351556  0.05015717     0.03800
C733        C  0.38276650  0.37573494  0.03754100    -0.21600
C734        C  0.38872615  0.36250881  0.05524496     0.13000
S735        S  0.39144656  0.34200092  0.10249015    -0.05200
C736        C  0.40643723  0.34339608  0.07093053    -0.08700
C737        C  0.40315654  0.35463106  0.04746725    -0.25300
S738        S  0.36152041  0.40128052  0.03297892    -0.02500
C739        C  0.34818747  0.40175504  0.06519380    -0.16000
C740        C  0.34928562  0.38845259  0.08783793    -0.13900
H741        H  0.36146684  0.36073427  0.11952933     0.21400
H742        H  0.38914832  0.38038211  0.01515785     0.17500
H743        H  0.41167303  0.35775820  0.02626794     0.20000
H744        H  0.34259418  0.38731565  0.10994134     0.13300
C745        C  0.43489187  0.57428138  0.97870619     0.17200
C746        C  0.41226706  0.55720509  0.98376089    -0.31800
C747        C  0.40795825  0.54241234  0.00772929     0.21600
C748        C  0.42532873  0.54457733  0.02606036     0.03800
C749        C  0.44794140  0.56175561  0.02112552    -0.21600
C750        C  0.45227816  0.57644554  0.99700445     0.13000
S751        S  0.44377293  0.59357745  0.95033984    -0.05200
C752        C  0.47122924  0.60459341  0.96317149    -0.08700
C753        C  0.47315947  0.59386037  0.98823726    -0.25300
S754        S  0.41652934  0.52471265  0.05374418    -0.02500
C755        C  0.38918396  0.51336211  0.04037642    -0.16000
C756        C  0.38718757  0.52453700  0.01585545    -0.13900
H757        H  0.39863090  0.55538050  0.96945290     0.21400
H758        H  0.46159317  0.56346461  0.03529114     0.17500
H759        H  0.48904403  0.59845465  0.99933560     0.20000
H760        H  0.37134835  0.51977637  0.00449624     0.13300
C761        C  0.98068586  0.37229216  0.90042540     0.17200
C762        C  0.00241845  0.38277222  0.88740614    -0.31800
C763        C  0.02128462  0.39031463  0.90613163     0.21600
C764        C  0.01861870  0.38702519  0.93644418     0.03800
C765        C  0.99679717  0.37606180  0.94944089    -0.21600
C766        C  0.97791764  0.36904669  0.93074585     0.13000
S767        S  0.95603874  0.36432240  0.88167879    -0.05200
C768        C  0.94173680  0.35681031  0.91498888    -0.08700
C769        C  0.95547684  0.35994371  0.93928491    -0.25300
S770        S  0.04373999  0.39914409  0.95549919    -0.02500
C771        C  0.05796220  0.40913273  0.92235293    -0.16000
C772        C  0.04379930  0.40281026  0.89788894    -0.13900
H773        H  0.00457306  0.38582511  0.86381789     0.21400
H774        H  0.99470005  0.37400732  0.97311153     0.17500
H775        H  0.94957359  0.35676486  0.96192871     0.20000
H776        H  0.04959960  0.40809032  0.87539969     0.13300
C777        C  0.24846498  0.46699966  0.01351874     0.17200
C778        C  0.23676994  0.47739109  0.00168727    -0.31800
C779        C  0.21709701  0.46385983  0.98513005     0.21600
C780        C  0.20937748  0.44096094  0.98041320     0.03800
C781        C  0.22128573  0.43059639  0.99195119    -0.21600
C782        C  0.24097231  0.44415375  0.00868281     0.13000
S783        S  0.27241766  0.48053487  0.03461631    -0.05200
C784        C  0.27258721  0.45523589  0.03696939    -0.08700
C785        C  0.25483160  0.43728302  0.02204716    -0.25300
S786        S  0.18453609  0.42738292  0.96070160    -0.02500
C787        C  0.18458932  0.45284448  0.95893027    -0.16000
C788        C  0.20310724  0.47079918  0.97264351    -0.13900
H789        H  0.24262483  0.49523700  0.00550998     0.21400
H790        H  0.21533104  0.41274335  0.98835846     0.17500
H791        H  0.25228404  0.42024134  0.02091825     0.20000
H792        H  0.20590550  0.48796706  0.97403388     0.13300
C793        C  0.39589369  0.37015579  0.39596085     0.17200
C794        C  0.38623725  0.38264142  0.38472625    -0.31800
C795        C  0.37265464  0.38712812  0.40372702     0.21600
C796        C  0.36832650  0.37912020  0.43258401     0.03800
C797        C  0.37753569  0.36599459  0.44368101    -0.21600
C798        C  0.39165844  0.36193276  0.42474628     0.13000
S799        S  0.41493756  0.36547713  0.37712507    -0.05200
C800        C  0.41761489  0.35242400  0.40828358    -0.08700
C801        C  0.40394516  0.35138846  0.43189436    -0.25300
S802        S  0.35300656  0.38840111  0.45261797    -0.02500
C803        C  0.35289319  0.40343683  0.42180187    -0.16000
C804        C  0.36368034  0.40078675  0.39737629    -0.13900
H805        H  0.39002504  0.38949184  0.36245725     0.21400
H806        H  0.37466335  0.36010046  0.46637936     0.17500
H807        H  0.40389870  0.34439788  0.45345016     0.20000
H808        H  0.36586296  0.40936977  0.37636538     0.13300
C809        C  0.42235166  0.54996173  0.47160583     0.17200
C810        C  0.44162103  0.57178920  0.47388950    -0.31800
C811        C  0.45080517  0.57937280  0.50214800     0.21600
C812        C  0.44117030  0.56586003  0.52699696     0.03800
C813        C  0.42200778  0.54403927  0.52468406    -0.21600
C814        C  0.41288137  0.53642522  0.49647303     0.13000
S815        S  0.40839947  0.53766885  0.43948792    -0.05200
C816        C  0.38965245  0.51400646  0.45977346    -0.08700
C817        C  0.39420757  0.51577239  0.48981712    -0.25300
S818        S  0.45455466  0.57818465  0.55931653    -0.02500
C819        C  0.47349724  0.60180119  0.53924702    -0.16000
C820        C  0.46945165  0.60003060  0.50903046    -0.13900
H821        H  0.44907357  0.58240093  0.45453369     0.21400
H822        H  0.41448604  0.53346534  0.54407663     0.17500
H823        H  0.38421953  0.50271579  0.50600983     0.20000
H824        H  0.47951543  0.61318428  0.49301514     0.13300
C825        C  0.33434616  0.47417324  0.22535593     0.17200
C826        C  0.34202009  0.48324640  0.25355250    -0.31800
C827        C  0.32957175  0.47009205  0.27802330     0.21600
C828        C  0.31014630  0.44899243  0.27457852     0.03800
C829        C  0.30229376  0.44007025  0.24637607    -0.21600
C830        C  0.31491027  0.45307555  0.22192893     0.13000
S831        S  0.34787581  0.48675948  0.19297810    -0.05200
C832        C  0.32713837  0.46333673  0.17462909    -0.08700
C833        C  0.31062600  0.44682245  0.19284658    -0.25300
S834        S  0.29823200  0.43511017  0.30701620    -0.02500
C835        C  0.31980410  0.45782670  0.32547366    -0.16000
C836        C  0.33512307  0.47531261  0.30719703    -0.13900
H837        H  0.35737165  0.49956383  0.25631799     0.21400
H838        H  0.28732614  0.42342326  0.24362322     0.17500
H839        H  0.29655512  0.43080721  0.18526398     0.20000
H840        H  0.35001906  0.49063523  0.31479656     0.13300
C841        C  0.97997715  0.36797335  0.58318153     0.17200
C842        C  0.00157870  0.37403679  0.59451642    -0.31800
C843        C  0.02074625  0.38816103  0.57706078     0.21600
C844        C  0.01843408  0.39556022  0.54935486     0.03800
C845        C  0.99685869  0.38932058  0.53792870    -0.21600
C846        C  0.97774640  0.37553193  0.55555108     0.13000
S847        S  0.95474665  0.35235299  0.60169368    -0.05200
C848        C  0.94106938  0.35618955  0.57199071    -0.08700
C849        C  0.95546600  0.36878295  0.54897121    -0.25300
S850        S  0.04364574  0.41377870  0.53239007    -0.02500
C851        C  0.05758417  0.41188202  0.56312884    -0.16000
C852        C  0.04323773  0.39737447  0.58504049    -0.13900
H853        H  0.00339447  0.36856411  0.61635890     0.21400
H854        H  0.99508826  0.39553211  0.51658926     0.17500
H855        H  0.95001875  0.37341577  0.52892328     0.20000
H856        H  0.04889836  0.39466093  0.60626289     0.13300
C857        C  0.13783992  0.47955963  0.72291575     0.17200
C858        C  0.13608455  0.48694203  0.75117125    -0.31800
C859        C  0.14042367  0.47678387  0.77545598     0.21600
C860        C  0.14643297  0.46014618  0.77181544     0.03800
C861        C  0.14841302  0.45292775  0.74353381    -0.21600
C862        C  0.14389413  0.46295543  0.71922970     0.13000
S863        S  0.13226068  0.48903524  0.69074245    -0.05200
C864        C  0.13812444  0.47042709  0.67204788    -0.08700
C865        C  0.14416247  0.45769417  0.69004539    -0.25300
S866        S  0.14991045  0.44917582  0.80413969    -0.02500
C867        C  0.14301992  0.46707280  0.82273686    -0.16000
C868        C  0.13855335  0.48091876  0.80464206    -0.13900
H869        H  0.13112717  0.49971659  0.75411549     0.21400
H870        H  0.15285314  0.43974650  0.74061750     0.17500
H871        H  0.14814971  0.44497979  0.68222667     0.20000
H872        H  0.13350044  0.49283787  0.81240354     0.13300
C873        C  0.23435204  0.43767086  0.48711304     0.17200
C874        C  0.21214044  0.42857088  0.49876732    -0.31800
C875        C  0.20652231  0.44362604  0.51290121     0.21600
C876        C  0.22244250  0.46656950  0.51555548     0.03800
C877        C  0.24447270  0.47560108  0.50388332    -0.21600
C878        C  0.24995659  0.46071194  0.48948067     0.13000
S879        S  0.24483934  0.42260508  0.46901195    -0.05200
C880        C  0.27028525  0.44777036  0.46427303    -0.08700
C881        C  0.27042619  0.46658954  0.47631254    -0.25300
S882        S  0.21266828  0.48219335  0.53323652    -0.02500
C883        C  0.18659496  0.45774924  0.53696351    -0.16000
C884        C  0.18576761  0.43842834  0.52513414    -0.13900
H885        H  0.19978102  0.41064082  0.49673839     0.21400
H886        H  0.25679564  0.49356752  0.50574100     0.17500
H887        H  0.28487486  0.48374338  0.47563838     0.20000
H888        H  0.17081032  0.42161433  0.52526747     0.13300
C889        C  0.01965935  0.62685012  0.05174145     0.17200
C890        C  0.99753520  0.61348034  0.04061097    -0.31800
C891        C  0.97916562  0.60796122  0.05982777     0.21600
C892        C  0.98266203  0.61583933  0.08864261     0.03800
C893        C  0.00475680  0.62951577  0.09961240    -0.21600
C894        C  0.02310734  0.63458885  0.08061418     0.13000
S895        S  0.04416676  0.63343528  0.03297719    -0.05200
C896        C  0.05917232  0.64639585  0.06452849    -0.08700
C897        C  0.04574696  0.64592525  0.08801732    -0.25300
S898        S  0.95829019  0.60596483  0.10910106    -0.02500
C899        C  0.94319263  0.59077884  0.07867315    -0.16000
C900        C  0.95649542  0.59363947  0.05391881    -0.13900
H901        H  0.99477041  0.60691505  0.01831696     0.21400
H902        H  0.00752873  0.63519329  0.12232457     0.17500
H903        H  0.05211794  0.65255186  0.10980888     0.20000
H904        H  0.95003552  0.58490818  0.03314868     0.13300
C905        C  0.12215828  0.56862564  0.02187172     0.17200
C906        C  0.11689178  0.54595641  0.01826049    -0.31800
C907        C  0.12436743  0.54041038  0.99226661     0.21600
C908        C  0.13646425  0.55669077  0.97075375     0.03800
C909        C  0.14146137  0.57927915  0.97418770    -0.21600
C910        C  0.13405800  0.58483988  0.00021096     0.13000
S911        S  0.11528710  0.57898491  0.05219862    -0.05200
C912        C  0.12845027  0.60541956  0.03545689    -0.08700
C913        C  0.13758169  0.60594395  0.00779431    -0.25300
S914        S  0.14453152  0.54669762  0.94118511    -0.02500
C915        C  0.13142818  0.52025374  0.95787675    -0.16000
C916        C  0.12134276  0.51943748  0.98493788    -0.13900
H917        H  0.10758388  0.53323662  0.03514274     0.21400
H918        H  0.15092565  0.59203264  0.95742300     0.17500
H919        H  0.14650740  0.62102272  0.99406347     0.20000
H920        H  0.11241671  0.50432758  0.99863876     0.13300
C921        C  0.40800594  0.01134457  0.90568125     0.17200
C922        C  0.40072365  0.98992426  0.89345811    -0.31800
C923        C  0.38715864  0.97084617  0.91102670     0.21600
C924        C  0.38077849  0.97285427  0.93948309     0.03800
C925        C  0.38798783  0.99441643  0.95174398    -0.21600
C926        C  0.40187774  0.01364024  0.93417880     0.13000
S927        S  0.42543083  0.03631970  0.88805820    -0.05200
C928        C  0.42475803  0.05032559  0.91932706    -0.08700
C929        C  0.41146251  0.03614386  0.94220603    -0.25300
S930        S  0.36467219  0.94732468  0.95724905    -0.02500
C931        C  0.36692717  0.93406331  0.92603336    -0.16000
C932        C  0.37929600  0.94872650  0.90322488    -0.13900
H933        H  0.40578890  0.98821006  0.87133047     0.21400
H934        H  0.38332682  0.99612679  0.97405741     0.17500
H935        H  0.40938087  0.04192532  0.96360461     0.20000
H936        H  0.38270201  0.94348578  0.88213161     0.13300
C937        C  0.43073110  0.85537175  0.97567683     0.17200
C938        C  0.44876126  0.85109588  0.98032879    -0.31800
C939        C  0.46128391  0.85920511  0.00654030     0.21600
C940        C  0.45609923  0.87103913  0.02716697     0.03800
C941        C  0.43806021  0.87521893  0.02257180    -0.21600
C942        C  0.42555901  0.86712191  0.99643717     0.13000
S943        S  0.41353630  0.84723132  0.94524589    -0.05200
C944        C  0.39925678  0.85976417  0.96079150    -0.08700
C945        C  0.40751874  0.86963883  0.98805477    -0.25300
S946        S  0.47342166  0.87974993  0.05734105    -0.02500
C947        C  0.48784616  0.86731176  0.04211681    -0.16000
C948        C  0.47950960  0.85695849  0.01506070    -0.13900
H949        H  0.45289871  0.84193274  0.96419632     0.21400
H950        H  0.43398719  0.88447269  0.03865078     0.17500
H951        H  0.40072088  0.87831042  0.00104985     0.20000
H952        H  0.48650703  0.84839443  0.00224026     0.13300
C953        C  0.25715292  0.77350723  0.99157218     0.17200
C954        C  0.24421644  0.75210045  0.00481200    -0.31800
C955        C  0.22316757  0.74680400  0.01724551     0.21600
C956        C  0.21524346  0.76212551  0.01667266     0.03800
C957        C  0.22843912  0.78382498  0.00385114    -0.21600
C958        C  0.24955658  0.78910269  0.99124138     0.13000
S959        S  0.28265534  0.78253077  0.97430914    -0.05200
C960        C  0.28337253  0.80774912  0.96659515    -0.08700
C961        C  0.26469041  0.80897617  0.97701772    -0.25300
S962        S  0.18854068  0.75164669  0.03164401    -0.02500
C963        C  0.18826877  0.72648167  0.03877129    -0.16000
C964        C  0.20793141  0.72651080  0.03012348    -0.13900
H965        H  0.25014227  0.73991049  0.00496460     0.21400
H966        H  0.22236028  0.79585304  0.00325861     0.17500
H967        H  0.26223386  0.82344919  0.97409794     0.20000
H968        H  0.21069584  0.71214393  0.03241534     0.13300
C969        C  0.01861083  0.62404060  0.40707684     0.17200
C970        C  0.99660183  0.61160545  0.39567385    -0.31800
C971        C  0.97840477  0.60689282  0.41457373     0.21600
C972        C  0.98179704  0.61434365  0.44356910     0.03800
C973        C  0.00397439  0.62720954  0.45490637    -0.21600
C974        C  0.02230301  0.63180201  0.43596694     0.13000
S975        S  0.04259326  0.62983202  0.38803376    -0.05200
C976        C  0.05800435  0.64291442  0.41920643    -0.08700
C977        C  0.04508949  0.64297035  0.44302025    -0.25300
S978        S  0.95705129  0.60546076  0.46316538    -0.02500
C979        C  0.94224632  0.59163001  0.43182873    -0.16000
C980        C  0.95586649  0.59404195  0.40770407    -0.13900
H981        H  0.99375594  0.60533596  0.37324943     0.21400
H982        H  0.00679252  0.63287108  0.47762977     0.17500
H983        H  0.05188797  0.64998654  0.46453228     0.20000
H984        H  0.94960867  0.58618818  0.38642782     0.13300
C985        C  0.13059600  0.55634526  0.52630700     0.17200
C986        C  0.12748737  0.57526599  0.52394270    -0.31800
C987        C  0.13199471  0.58641318  0.49648279     0.21600
C988        C  0.13960407  0.57926194  0.47256595     0.03800
C989        C  0.14269867  0.56034722  0.47492546    -0.21600
C990        C  0.13783530  0.54898126  0.50223104     0.13000
S991        S  0.12565136  0.54023096  0.55750356    -0.05200
C992        C  0.13305684  0.52317589  0.53776480    -0.08700
C993        C  0.13914991  0.52987071  0.50862717    -0.25300
S994        S  0.14400190  0.59495771  0.44113161    -0.02500
C995        C  0.13511733  0.61111221  0.46020972    -0.16000
C996        C  0.12934552  0.60468450  0.48950495    -0.13900
H997        H  0.12156039  0.58089219  0.54259858     0.21400
H998        H  0.14838469  0.55457170  0.45618335     0.17500
H999        H  0.14422898  0.52118440  0.49294751     0.20000
H1000       H  0.12338217  0.61284296  0.50481096     0.13300
C1001       C  0.14255868  0.68576801  0.27116230     0.17200
C1002       C  0.14338102  0.69435472  0.24261943    -0.31800
C1003       C  0.14208982  0.68071899  0.21856316     0.21600
C1004       C  0.14014285  0.65954221  0.22277003     0.03800
C1005       C  0.13936532  0.65100791  0.25122723    -0.21600
C1006       C  0.14062654  0.66459088  0.27521038     0.13000
S1007       S  0.14321905  0.69923675  0.30336055    -0.05200
C1008       C  0.14095827  0.67609004  0.32236708    -0.08700
C1009       C  0.13975712  0.65898673  0.30446851    -0.25300
S1010       S  0.13837176  0.64536661  0.19093434    -0.02500
C1011       C  0.14019732  0.66812938  0.17157317    -0.16000
C1012       C  0.14210893  0.68574736  0.18913814    -0.13900
H1013       H  0.14475377  0.71083545  0.23930826     0.21400
H1014       H  0.13766880  0.63441715  0.25453450     0.17500
H1015       H  0.13790474  0.64308103  0.31243684     0.20000
H1016       H  0.14312597  0.70124712  0.18083005     0.13300
C1017       C  0.39473327  0.01939903  0.54942339     0.17200
C1018       C  0.38847579  0.99756488  0.53922097    -0.31800
C1019       C  0.37085985  0.97889297  0.55419320     0.21600
C1020       C  0.35958562  0.98178153  0.57792872     0.03800
C1021       C  0.36551394  0.00369285  0.58774371    -0.21600
C1022       C  0.38352309  0.02240707  0.57315102     0.13000
S1023       S  0.41720975  0.04397336  0.53608401    -0.05200
C1024       C  0.41174523  0.05859666  0.56292089    -0.08700
C1025       C  0.39313202  0.04494633  0.58088773    -0.25300
S1026       S  0.34009476  0.95684731  0.59467281    -0.02500
C1027       C  0.34748490  0.94245198  0.56967227    -0.16000
C1028       C  0.36383474  0.95640658  0.54917627    -0.13900
H1029       H  0.39759746  0.99520661  0.52116193     0.21400
H1030       H  0.35711016  0.00602420  0.60670620     0.17500
H1031       H  0.38756038  0.05105799  0.59940564     0.20000
H1032       H  0.37111227  0.95050472  0.53246958     0.13300
C1033       C  0.42209627  0.87263355  0.52993317     0.17200
C1034       C  0.44464023  0.87736985  0.52686234    -0.31800
C1035       C  0.44996171  0.86836353  0.50231234     0.21600
C1036       C  0.43355211  0.85504932  0.48175821     0.03800
C1037       C  0.41084355  0.84994634  0.48511402    -0.21600
C1038       C  0.40556100  0.85914887  0.50960062     0.13000
S1039       S  0.41259828  0.88288773  0.55753074    -0.05200
C1040       C  0.38599391  0.86881455  0.54168333    -0.08700
C1041       C  0.38470126  0.85679688  0.51632804    -0.25300
S1042       S  0.44389447  0.84684593  0.45266946    -0.02500
C1043       C  0.47057154  0.86157944  0.46842547    -0.16000
C1044       C  0.47115674  0.87198075  0.49492999    -0.13900
H1045       H  0.45759074  0.88800826  0.54262926     0.21400
H1046       H  0.39797693  0.83966035  0.46904468     0.17500
H1047       H  0.36938866  0.84703775  0.50341238     0.20000
H1048       H  0.48642018  0.88219522  0.50772595     0.13300
C1049       C  0.33559899  0.84963153  0.72404243     0.17200
C1050       C  0.34500547  0.84843199  0.75106947    -0.31800
C1051       C  0.33354176  0.84828314  0.77696515     0.21600
C1052       C  0.31335427  0.84887418  0.77605821     0.03800
C1053       C  0.30371576  0.84968642  0.74895345    -0.21600
C1054       C  0.31544891  0.85029910  0.72301294     0.13000
S1055       S  0.34799142  0.85187843  0.69041515    -0.05200
C1056       C  0.32603084  0.85413120  0.67467709    -0.08700
C1057       C  0.30978243  0.85275912  0.69464340    -0.25300
S1058       S  0.30291553  0.84999557  0.81006407    -0.02500
C1059       C  0.32612564  0.84987982  0.82558664    -0.16000
C1060       C  0.34086582  0.84870873  0.80528860    -0.13900
H1061       H  0.36096142  0.84837472  0.75190260     0.21400
H1062       H  0.28818094  0.85057606  0.74815149     0.17500
H1063       H  0.29507314  0.85427844  0.68883210     0.20000
H1064       H  0.35655073  0.84899962  0.81090418     0.13300
C1065       C  0.23417927  0.79393467  0.50862716     0.17200
C1066       C  0.21292627  0.78207958  0.49448458    -0.31800
C1067       C  0.20647205  0.76044736  0.48302336     0.21600
C1068       C  0.22070470  0.75125464  0.48533571     0.03800
C1069       C  0.24179967  0.76300905  0.49950057    -0.21600
C1070       C  0.24808780  0.78440494  0.51120338     0.13000
S1071       S  0.24534139  0.82036531  0.52410076    -0.05200
C1072       C  0.26869674  0.81820849  0.53451848    -0.08700
C1073       C  0.26779342  0.79815228  0.52612826    -0.25300
S1074       S  0.21014976  0.72500605  0.47014915    -0.02500
C1075       C  0.18606029  0.72606468  0.46071321    -0.16000
C1076       C  0.18639260  0.74595609  0.46889906    -0.13900
H1077       H  0.20188818  0.78933901  0.49262418     0.21400
H1078       H  0.25278873  0.75571420  0.50147459     0.17500
H1079       H  0.28095903  0.79390825  0.53055927     0.20000
H1080       H  0.17271930  0.74955435  0.46486111     0.13300
loop_ 
_geom_bond_atom_site_label_1 
_geom_bond_atom_site_label_2 
_geom_bond_distance 
_geom_bond_site_symmetry_2 
_ccdc_geom_bond_type 
O1            C4   1.262       .  A
O1           Cd6   2.467       .  S
C2           O11   1.266       .  A
C2            O7   1.266       .  A
C2         C1040   1.470       .  S
O3            C9   1.263       .  A
O3           Cd6   2.450       .  S
C4           O12   1.265       .  A
C4         C1056   1.474       .  S
C5           O10   1.264       .  A
C5            O8   1.264       .  A
C5         C1027   1.477       .  S
Cd6          O13   2.499       .  S
Cd6          O12   2.501       .  S
Cd6          O11   2.467       .  S
Cd6           O7   2.457       .  S
Cd6          O10   2.478       .  S
Cd6           O8   2.498       .  S
C9           O13   1.266       .  A
C9         C1072   1.472       .  S
O14          C17   1.265       .  A
O14         Cd19   2.467       .  S
C15          O24   1.266       .  A
C15          O20   1.265       .  A
C15        C1008   1.474       .  S
O16          C22   1.261       .  A
O16         Cd19   2.417       .  S
C17          O25   1.266       .  A
C17         C995   1.474       .  S
C18          O23   1.268       .  A
C18          O21   1.262       .  A
C18        C1075   1.472       .  S
Cd19         O26   2.513       .  S
Cd19         O25   2.481       .  S
Cd19         O24   2.489       .  S
Cd19         O20   2.458       .  S
Cd19         O23   2.515       .  S
Cd19         O21   2.429       .  S
C22          O26   1.267       .  A
C22         C976   1.468       .  S
O27          C30   1.266       .  A
O27         Cd32   2.491       .  S
C28          O37   1.265       .  A
C28          O33   1.267       .  A
C28        C1059   1.474       .  S
O29          C35   1.266       .  A
O29         Cd32   2.493       .  S
C30          O38   1.264       .  A
C30         C944   1.472       .  S
C31          O36   1.266       .  A
C31          O34   1.264       .  A
C31         C931   1.470       .  S
Cd32         O39   2.441       .  S
Cd32         O38   2.451       .  S
Cd32         O37   2.475       .  S
Cd32         O33   2.472       .  S
Cd32         O36   2.486       .  S
Cd32         O34   2.439       .  S
C35          O39   1.264       .  A
C35         C960   1.471       .  S
O40          C43   1.266       .  A
O40         Cd45   2.471       .  S
C41          O50   1.265       .  A
C41          O46   1.266       .  A
C41         C912   1.476       .  S
O42          C48   1.261       .  A
O42         Cd45   2.468       .  S
C43          O51   1.265       .  A
C43        C1011   1.474       .  S
C44          O49   1.266       .  A
C44          O47   1.264       .  A
C44         C963   1.475       .  S
Cd45         O52   2.495       .  S
Cd45         O51   2.476       .  S
Cd45         O50   2.479       .  S
Cd45         O46   2.485       .  S
Cd45         O49   2.507       .  S
Cd45         O47   2.458       .  S
C48          O52   1.264       .  A
C48         C896   1.473       .  S
O53          C56   1.265       .  A
O53         Cd58   2.479       .  S
C54          O63   1.267       .  A
C54          O59   1.264       .  A
C54         C864   1.474       .  S
O55          C61   1.262       .  A
O55         Cd58   2.468       .  S
C56          O64   1.265       .  A
C56         C992   1.473       .  S
C57          O62   1.264       .  A
C57          O60   1.266       .  A
C57         C883   1.479       .  S
Cd58         O65   2.506       .  S
Cd58         O64   2.479       .  S
Cd58         O63   2.489       .  S
Cd58         O59   2.464       .  S
Cd58         O62   2.463       .  S
Cd58         O60   2.523       .  S
C61          O65   1.264       .  A
C61         C851   1.475       .  S
O66          C69   1.265       .  A
O66         Cd71   2.494       .  S
C67          O76   1.266       .  A
C67          O72   1.266       .  A
C67         C835   1.475       .  S
O68          C74   1.265       .  A
O68         Cd71   2.521       .  S
C69          O77   1.265       .  A
C69         C816   1.479       .  S
C70          O75   1.265       .  A
C70          O73   1.264       .  A
C70         C880   1.477       .  S
Cd71         O78   2.453       .  S
Cd71         O77   2.491       .  S
Cd71         O76   2.478       .  S
Cd71         O72   2.478       .  S
Cd71         O75   2.511       .  S
Cd71         O73   2.465       .  S
C74          O78   1.262       .  A
C74         C803   1.476       .  S
O79          C82   1.266       .  A
O79         Cd84   2.465       .  S
C80          O89   1.266       .  A
C80          O85   1.265       .  A
C80         C915   1.477       .  S
O81          C87   1.265       .  A
O81         Cd84   2.496       .  S
C82          O90   1.265       .  A
C82         C867   1.471       .  S
C83          O88   1.265       .  A
C83          O86   1.264       .  A
C83         C787   1.478       .  S
Cd84         O91   2.483       .  S
Cd84         O90   2.466       .  S
Cd84         O89   2.485       .  S
Cd84         O85   2.482       .  S
Cd84         O88   2.507       .  S
Cd84         O86   2.475       .  S
C87          O91   1.263       .  A
C87         C771   1.477       .  S
O92          C95   1.265       .  A
O92         Cd97   2.468       .  S
C93         O102   1.263       .  A
C93          O98   1.265       .  A
C93         C755   1.470       .  S
O94         C100   1.264       .  A
O94         Cd97   2.476       .  S
C95         O103   1.266       .  A
C95         C832   1.473       .  S
C96         O101   1.263       .  A
C96          O99   1.268       .  A
C96         C784   1.477       .  S
Cd97        O104   2.489       .  S
Cd97        O103   2.475       .  S
Cd97        O102   2.452       .  S
Cd97         O98   2.483       .  S
Cd97        O101   2.452       .  S
Cd97         O99   2.516       .  S
C100        O104   1.263       .  A
C100        C739   1.474       .  S
O105        C108   1.265       .  A
O105       Cd110   2.479       .  S
C106        O115   1.267       .  A
C106        O111   1.266       .  A
C106       C1043   1.472       .  S
O107        C113   1.268       .  A
O107       Cd110   2.505       .  S
C108        O116   1.264       .  A
C108        C704   1.474       .  S
C109        O114   1.269       .  A
C109        O112   1.262       .  A
C109        C688   1.478       .  S
Cd110       O117   2.460       .  S
Cd110       O116   2.475       .  S
Cd110       O115   2.462       .  S
Cd110       O111   2.472       .  S
Cd110       O114   2.540       .  S
Cd110       O112   2.427       .  S
C113        O117   1.263       .  A
C113        C720   1.477       .  S
O118        C121   1.266       .  A
O118       Cd123   2.479       .  S
C119        O128   1.266       .  A
C119        O124   1.268       .  A
C119        C672   1.474       .  S
O120        C126   1.260       .  A
O120       Cd123   2.444       .  S
C121        O129   1.265       .  A
C121        C819   1.476       .  S
C122        O127   1.268       .  A
C122        O125   1.262       .  A
C122        C723   1.477       .  S
Cd123       O130   2.518       .  S
Cd123       O129   2.484       .  S
Cd123       O128   2.466       .  S
Cd123       O124   2.476       .  S
Cd123       O127   2.528       .  S
Cd123       O125   2.446       .  S
C126        O130   1.267       .  A
C126        C656   1.473       .  S
O131        C134   1.265       .  A
O131       Cd136   2.478       .  S
C132        O141   1.265       .  A
C132        O137   1.266       .  A
C132        C947   1.470       .  S
O133        C139   1.264       .  A
O133       Cd136   2.498       .  S
C134        O142   1.265       .  A
C134        C707   1.474       .  S
C135        O140   1.266       .  A
C135        O138   1.263       .  A
C135        C643   1.471       .  S
Cd136       O143   2.460       .  S
Cd136       O142   2.481       .  S
Cd136       O141   2.464       .  S
Cd136       O137   2.464       .  S
Cd136       O140   2.499       .  S
Cd136       O138   2.443       .  S
C139        O143   1.262       .  A
C139        C624   1.472       .  S
O144        C147   1.267       .  A
O144       Cd149   2.477       .  S
C145        O154   1.265       .  A
C145        O150   1.266       .  A
C145        C752   1.472       .  S
O146        C152   1.262       .  A
O146       Cd149   2.444       .  S
C147        O155   1.266       .  A
C147        C675   1.474       .  S
C148        O153   1.266       .  A
C148        O151   1.262       .  A
C148        C640   1.473       .  S
Cd149       O156   2.500       .  S
Cd149       O155   2.468       .  S
Cd149       O154   2.457       .  S
Cd149       O150   2.483       .  S
Cd149       O153   2.516       .  S
Cd149       O151   2.442       .  S
C152        O156   1.266       .  A
C152        C608   1.471       .  S
O157        C160   1.265       .  A
O157       Cd162   2.468       .  S
C158        O167   1.266       .  A
C158        O163   1.267       .  A
C158        C579   1.474       .  S
O159        C165   1.266       .  A
O159       Cd162   2.519       .  S
C160        O168   1.264       .  A
C160        C560   1.470       .  S
C161        O166   1.266       .  A
C161        O164   1.263       .  A
C161        C592   1.474       .  S
Cd162       O169   2.442       .  S
Cd162       O168   2.470       .  S
Cd162       O167   2.453       .  S
Cd162       O163   2.488       .  S
Cd162       O166   2.498       .  S
Cd162       O164   2.460       .  S
C165        O169   1.261       .  A
C165        C768   1.473       .  S
O170        C173   1.265       .  A
O170       Cd175   2.469       .  S
C171        O180   1.267       .  A
C171        O176   1.263       .  A
C171        C544   1.475       .  S
O172        C178   1.262       .  A
O172       Cd175   2.481       .  S
C173        O181   1.266       .  A
C173        C528   1.472       .  S
C174        O179   1.267       .  A
C174        O177   1.264       .  A
C174        C595   1.476       .  S
Cd175       O182   2.490       .  S
Cd175       O181   2.470       .  S
Cd175       O180   2.501       .  S
Cd175       O176   2.461       .  S
Cd175       O179   2.513       .  S
Cd175       O177   2.452       .  S
C178        O182   1.264       .  A
C178        C627   1.475       .  S
O183        C186   1.264       .  A
O183       Cd188   2.482       .  S
C184        O193   1.265       .  A
C184        O189   1.266       .  A
C184        C496   1.472       .  S
O185        C191   1.264       .  A
O185       Cd188   2.496       .  S
C186        O194   1.265       .  A
C186        C576   1.475       .  S
C187        O192   1.266       .  A
C187        O190   1.264       .  A
C187        C515   1.477       .  S
Cd188       O195   2.474       .  S
Cd188       O194   2.479       .  S
Cd188       O193   2.465       .  S
Cd188       O189   2.476       .  S
Cd188       O192   2.502       .  S
Cd188       O190   2.473       .  S
C191        O195   1.262       .  A
C191        C848   1.474       .  S
O196        C199   1.266       .  A
O196       Cd201   2.484       .  S
C197        O206   1.265       .  A
C197        O202   1.267       .  A
C197        C480   1.472       .  S
O198        C204   1.269       .  A
O198       Cd201   2.520       .  S
C199        O207   1.266       .  A
C199        C547   1.476       .  S
C200        O205   1.268       .  A
C200        O203   1.263       .  A
C200        C512   1.477       .  S
Cd201       O208   2.432       .  S
Cd201       O207   2.476       .  S
Cd201       O206   2.454       .  S
Cd201       O202   2.485       .  S
Cd201       O205   2.521       .  S
Cd201       O203   2.444       .  S
C204        O208   1.264       .  A
C204        C691   1.477       .  S
O209        C212   1.266       .  A
O209       Cd214   2.474       .  S
C210        O219   1.267       .  A
C210        O215   1.267       .  A
C210        C448   1.479       .  S
O211        C217   1.268       .  A
O211       Cd214   2.526       .  S
C212        O220   1.265       .  A
C212        C531   1.474       .  S
C213        O218   1.268       .  A
C213        O216   1.262       .  A
C213        C464   1.478       .  S
Cd214       O221   2.422       .  S
Cd214       O220   2.479       .  S
Cd214       O219   2.477       .  S
Cd214       O215   2.492       .  S
Cd214       O218   2.542       .  S
Cd214       O216   2.434       .  S
C217        O221   1.262       .  A
C217        C928   1.473       .  S
O222        C225   1.267       .  A
O222       Cd227   2.486       .  S
C223        O232   1.264       .  A
C223        O228   1.267       .  A
C223        C419   1.471       .  S
O224        C230   1.267       .  A
O224       Cd227   2.500       .  S
C225        O233   1.264       .  A
C225        C432   1.472       .  S
C226        O231   1.264       .  A
C226        O229   1.261       .  A
C226        C736   1.474       .  S
Cd227       O234   2.459       .  S
Cd227       O233   2.445       .  S
Cd227       O232   2.459       .  S
Cd227       O228   2.477       .  S
Cd227       O231   2.499       .  S
Cd227       O229   2.478       .  S
C230        O234   1.264       .  A
C230        C467   1.476       .  S
O235        C238   1.264       .  A
O235       Cd240   2.485       .  S
C236        O245   1.265       .  A
C236        O241   1.267       .  A
C236        C483   1.471       .  S
O237        C243   1.262       .  A
O237       Cd240   2.473       .  S
C238        O246   1.266       .  A
C238        C451   1.478       .  S
C239        O244   1.266       .  A
C239        O242   1.264       .  A
C239        C400   1.474       .  S
Cd240       O247   2.513       .  S
Cd240       O246   2.490       .  S
Cd240       O245   2.469       .  S
Cd240       O241   2.463       .  S
Cd240       O244   2.492       .  S
Cd240       O242   2.459       .  S
C243        O247   1.265       .  A
C243       C1024   1.477       .  S
O248        C251   1.265       .  A
O248       Cd253   2.474       .  S
C249        O258   1.265       .  A
C249        O254   1.266       .  A
C249        C384   1.474       .  S
O250        C256   1.265       .  A
O250       Cd253   2.519       .  S
C251        O259   1.266       .  A
C251        C435   1.476       .  S
C252        O257   1.266       .  A
C252        O255   1.262       .  A
C252        C403   1.472       .  S
Cd253       O260   2.441       .  S
Cd253       O259   2.492       .  S
Cd253       O258   2.467       .  S
Cd253       O254   2.484       .  S
Cd253       O257   2.505       .  S
Cd253       O255   2.449       .  S
C256        O260   1.261       .  A
C256        C800   1.473       .  S
O261        C264   1.268       .  A
O261       Cd266   2.488       .  S
C262        O271   1.266       .  A
C262        O267   1.267       .  A
C262        C352   1.477       .  S
O263        C269   1.262       .  A
O263       Cd266   2.451       .  S
C264        O272   1.264       .  A
C264        C416   1.472       .  S
C265        O270   1.264       .  A
C265        O268   1.265       .  A
C265        C368   1.476       .  S
Cd266       O273   2.507       .  S
Cd266       O272   2.452       .  S
Cd266       O271   2.485       .  S
Cd266       O267   2.475       .  S
Cd266       O270   2.472       .  S
Cd266       O268   2.503       .  S
C269        O273   1.265       .  A
C269        C611   1.473       .  S
O274        C277   1.265       .  A
O274       Cd279   2.478       .  S
C275        O284   1.266       .  A
C275        O280   1.267       .  A
C275        C336   1.469       .  S
O276        C282   1.261       .  A
O276       Cd279   2.467       .  S
C277        O285   1.265       .  A
C277        C563   1.469       .  S
C278        O283   1.267       .  A
C278        O281   1.263       .  A
C278        C371   1.473       .  S
Cd279       O286   2.493       .  S
Cd279       O285   2.449       .  S
Cd279       O284   2.449       .  S
Cd279       O280   2.459       .  S
Cd279       O283   2.504       .  S
Cd279       O281   2.444       .  S
C282        O286   1.264       .  A
C282        C899   1.472       .  S
O287        C290   1.266       .  A
O287       Cd292   2.481       .  S
C288        O297   1.263       .  A
C288        O293   1.266       .  A
C288        C387   1.473       .  S
O289        C295   1.262       .  A
O289       Cd292   2.472       .  S
C290        O298   1.267       .  A
C290        C355   1.478       .  S
C291        O296   1.267       .  A
C291        O294   1.264       .  A
C291        C320   1.474       .  S
Cd292       O299   2.498       .  S
Cd292       O298   2.485       .  S
Cd292       O297   2.457       .  S
Cd292       O293   2.493       .  S
Cd292       O296   2.513       .  S
Cd292       O294   2.438       .  S
C295        O299   1.262       .  A
C295        C659   1.473       .  S
O300        C303   1.265       .  A
O300       Cd305   2.459       .  S
C301        O310   1.265       .  A
C301        O306   1.265       .  A
C301        C499   1.472       .  S
O302        C308   1.262       .  A
O302       Cd305   2.420       .  S
C303        O311   1.266       .  A
C303        C339   1.471       .  S
C304        O309   1.263       .  A
C304        O307   1.265       .  A
C304        C323   1.476       .  S
Cd305       O312   2.501       .  S
Cd305       O311   2.478       .  S
Cd305       O310   2.469       .  S
Cd305       O306   2.475       .  S
Cd305       O309   2.442       .  S
Cd305       O307   2.522       .  S
C308        O312   1.267       .  A
C308        C979   1.469       .  S
C313        S319   1.700       .  A
C313        C318   1.387       .  A
C313        C314   1.396       .  A
C314        C315   1.397       .  A
C314        H325   1.083       .  S
C315        C324   1.365       .  A
C315        C316   1.386       .  A
C316        S322   1.718       .  A
C316        C317   1.409       .  A
C317        C318   1.410       .  A
C317        H326   1.083       .  S
C318        C321   1.379       .  A
S319        C320   1.720       .  A
C320        C321   1.392       .  A
C321        H327   1.083       .  S
S322        C323   1.728       .  A
C323        C324   1.383       .  A
C324        H328   1.083       .  S
C329        S335   1.708       .  A
C329        C334   1.387       .  A
C329        C330   1.401       .  A
C330        C331   1.403       .  A
C330        H341   1.081       .  S
C331        C340   1.370       .  A
C331        C332   1.387       .  A
C332        S338   1.709       .  A
C332        C333   1.401       .  A
C333        C334   1.402       .  A
C333        H342   1.083       .  S
C334        C337   1.369       .  A
S335        C336   1.722       .  A
C336        C337   1.386       .  A
C337        H343   1.084       .  S
S338        C339   1.723       .  A
C339        C340   1.387       .  A
C340        H344   1.081       .  S
C345        S351   1.712       .  A
C345        C350   1.386       .  A
C345        C346   1.405       .  A
C346        C347   1.406       .  A
C346        H357   1.084       .  S
C347        C356   1.375       .  A
C347        C348   1.387       .  A
C348        S354   1.709       .  A
C348        C349   1.403       .  A
C349        C350   1.403       .  A
C349        H358   1.082       .  S
C350        C353   1.373       .  A
S351        C352   1.726       .  A
C352        C353   1.387       .  A
C353        H359   1.082       .  S
S354        C355   1.724       .  A
C355        C356   1.389       .  A
C356        H360   1.084       .  S
C361        S367   1.712       .  A
C361        C366   1.387   1_556  A
C361        C362   1.406   1_556  A
C362        C363   1.406       .  A
C362        H373   1.083   1_554  S
C363        C372   1.376       .  A
C363        C364   1.387       .  A
C364        S370   1.704       .  A
C364        C365   1.400       .  A
C365        C366   1.401       .  A
C365        H374   1.083       .  S
C366        C369   1.370   1_554  A
S367        C368   1.725       .  A
C368        C369   1.386       .  A
C369        H375   1.083       .  S
S370        C371   1.722       .  A
C371        C372   1.389       .  A
C372        H376   1.083       .  S
C377        S383   1.710       .  A
C377        C382   1.387       .  A
C377        C378   1.402       .  A
C378        C379   1.404       .  A
C378        H389   1.083       .  S
C379        C388   1.370       .  A
C379        C380   1.387       .  A
C380        S386   1.710       .  A
C380        C381   1.402       .  A
C381        C382   1.404       .  A
C381        H390   1.083       .  S
C382        C385   1.371       .  A
S383        C384   1.724       .  A
C384        C385   1.387       .  A
C385        H391   1.083       .  S
S386        C387   1.723       .  A
C387        C388   1.388       .  A
C388        H392   1.083       .  S
C393        S399   1.711       .  A
C393        C398   1.387       .  A
C393        C394   1.405       .  A
C394        C395   1.405       .  A
C394        H405   1.081       .  S
C395        C404   1.375       .  A
C395        C396   1.387       .  A
C396        S402   1.704       .  A
C396        C397   1.400       .  A
C397        C398   1.400       .  A
C397        H406   1.084       .  S
C398        C401   1.369       .  A
S399        C400   1.724       .  A
C400        C401   1.386       .  A
C401        H407   1.085       .  S
S402        C403   1.722       .  A
C403        C404   1.388       .  A
C404        H408   1.081       .  S
C409        S415   1.706       .  A
C409        C414   1.387   1_554  A
C409        C410   1.401       .  A
C410        C411   1.402       .  A
C410        H421   1.083       .  S
C411        C420   1.371       .  A
C411        C412   1.387   1_554  A
C412        S418   1.707       .  A
C412        C413   1.403       .  A
C413        C414   1.403       .  A
C413        H422   1.082       .  S
C414        C417   1.373       .  A
S415        C416   1.723   1_554  A
C416        C417   1.387       .  A
C417        H423   1.082       .  S
S418        C419   1.723   1_556  A
C419        C420   1.386       .  A
C420        H424   1.083       .  S
C425        S431   1.705       .  A
C425        C430   1.387       .  A
C425        C426   1.402       .  A
C426        C427   1.402       .  A
C426        H437   1.084       .  S
C427        C436   1.373       .  A
C427        C428   1.387       .  A
C428        S434   1.708       .  A
C428        C429   1.404       .  A
C429        C430   1.404       .  A
C429        H438   1.083       .  S
C430        C433   1.374       .  A
S431        C432   1.723       .  A
C432        C433   1.387       .  A
C433        H439   1.083       .  S
S434        C435   1.725       .  A
C435        C436   1.387       .  A
C436        H440   1.084       .  S
C441        S447   1.708       .  A
C441        C446   1.387       .  A
C441        C442   1.403       .  A
C442        C443   1.403       .  A
C442        H453   1.085       .  S
C443        C452   1.373       .  A
C443        C444   1.387       .  A
C444        S450   1.711       .  A
C444        C445   1.405       .  A
C445        C446   1.406       .  A
C445        H454   1.084       .  S
C446        C449   1.376       .  A
S447        C448   1.724       .  A
C448        C449   1.390       .  A
C449        H455   1.083       .  S
S450        C451   1.725       .  A
C451        C452   1.387       .  A
C452        H456   1.085       .  S
C457        S463   1.701       .  A
C457        C462   1.387       .  A
C457        C458   1.399   1_556  A
C458        C459   1.399       .  A
C458        H469   1.084       .  S
C459        C468   1.370       .  A
C459        C460   1.386       .  A
C460        S466   1.714       .  A
C460        C461   1.409   1_554  A
C461        C462   1.409       .  A
C461        H470   1.082       .  S
C462        C465   1.381       .  A
S463        C464   1.722       .  A
C464        C465   1.392       .  A
C465        H471   1.082       .  S
S466        C467   1.726       .  A
C467        C468   1.386       .  A
C468        H472   1.085       .  S
C473        S479   1.705       .  A
C473        C478   1.387       .  A
C473        C474   1.400       .  A
C474        C475   1.400       .  A
C474        H485   1.083       .  S
C475        C484   1.369       .  A
C475        C476   1.387       .  A
C476        S482   1.710       .  A
C476        C477   1.404       .  A
C477        C478   1.405       .  A
C477        H486   1.083       .  S
C478        C481   1.373       .  A
S479        C480   1.722       .  A
C480        C481   1.388       .  A
C481        H487   1.083       .  S
S482        C483   1.725       .  A
C483        C484   1.384       .  A
C484        H488   1.083       .  S
C489        S495   1.707       .  A
C489        C494   1.387       .  A
C489        C490   1.402       .  A
C490        C491   1.403       .  A
C490        H501   1.083       .  S
C491        C500   1.371       .  A
C491        C492   1.387       .  A
C492        S498   1.708       .  A
C492        C493   1.402       .  A
C493        C494   1.403       .  A
C493        H502   1.083       .  S
C494        C497   1.372       .  A
S495        C496   1.723       .  A
C496        C497   1.387       .  A
C497        H503   1.083       .  S
S498        C499   1.723       .  A
C499        C500   1.387       .  A
C500        H504   1.083       .  S
C505        S511   1.704       .  A
C505        C510   1.387       .  A
C505        C506   1.401       .  A
C506        C507   1.401       .  A
C506        H517   1.084       .  S
C507        C516   1.371       .  A
C507        C508   1.386       .  A
C508        S514   1.713       .  A
C508        C509   1.407       .  A
C509        C510   1.407       .  A
C509        H518   1.081       .  S
C510        C513   1.378       .  A
S511        C512   1.723       .  A
C512        C513   1.390       .  A
C513        H519   1.081       .  S
S514        C515   1.726       .  A
C515        C516   1.386       .  A
C516        H520   1.084       .  S
C521        S527   1.709       .  A
C521        C526   1.387       .  A
C521        C522   1.403       .  A
C522        C523   1.404   1_554  A
C522        H533   1.083       .  S
C523        C532   1.373       .  A
C523        C524   1.387       .  A
C524        S530   1.708       .  A
C524        C525   1.402       .  A
C525        C526   1.402   1_556  A
C525        H534   1.083       .  S
C526        C529   1.371       .  A
S527        C528   1.724       .  A
C528        C529   1.386       .  A
C529        H535   1.083   1_554  S
S530        C531   1.723       .  A
C531        C532   1.388       .  A
C532        H536   1.083   1_556  S
C537        S543   1.707       .  A
C537        C542   1.387       .  A
C537        C538   1.403       .  A
C538        C539   1.403       .  A
C538        H549   1.083       .  S
C539        C548   1.374       .  A
C539        C540   1.387       .  A
C540        S546   1.709       .  A
C540        C541   1.404       .  A
C541        C542   1.404       .  A
C541        H550   1.084       .  S
C542        C545   1.375       .  A
S543        C544   1.724       .  A
C544        C545   1.388       .  A
C545        H551   1.084       .  S
S546        C547   1.724       .  A
C547        C548   1.388       .  A
C548        H552   1.083       .  S
C553        S559   1.705       .  A
C553        C558   1.387       .  A
C553        C554   1.399       .  A
C554        C555   1.400   1_556  A
C554        H565   1.083       .  S
C555        C564   1.367       .  A
C555        C556   1.387       .  A
C556        S562   1.710       .  A
C556        C557   1.403       .  A
C557        C558   1.404   1_554  A
C557        H566   1.083       .  S
C558        C561   1.371       .  A
S559        C560   1.721       .  A
C560        C561   1.387       .  A
C561        H567   1.083   1_556  S
S562        C563   1.724       .  A
C563        C564   1.384       .  A
C564        H568   1.083       .  S
C569        S575   1.710       .  A
C569        C574   1.387       .  A
C569        C570   1.405       .  A
C570        C571   1.406       .  A
C570        H581   1.083       .  S
C571        C580   1.376       .  A
C571        C572   1.387       .  A
C572        S578   1.705       .  A
C572        C573   1.401       .  A
C573        C574   1.401       .  A
C573        H582   1.084       .  S
C574        C577   1.371       .  A
S575        C576   1.725       .  A
C576        C577   1.386       .  A
C577        H583   1.084       .  S
S578        C579   1.722       .  A
C579        C580   1.389       .  A
C580        H584   1.082       .  S
C585        S591   1.705       .  A
C585        C590   1.387       .  A
C585        C586   1.399   1_556  A
C586        C587   1.400       .  A
C586        H597   1.084       .  S
C587        C596   1.368       .  A
C587        C588   1.386       .  A
C588        S594   1.715       .  A
C588        C589   1.406   1_554  A
C589        C590   1.407       .  A
C589        H598   1.082       .  S
C590        C593   1.375       .  A
S591        C592   1.722       .  A
C592        C593   1.389       .  A
C593        H599   1.082       .  S
S594        C595   1.726       .  A
C595        C596   1.386       .  A
C596        H600   1.084       .  S
C601        S607   1.703       .  A
C601        C606   1.387       .  A
C601        C602   1.399       .  A
C602        C603   1.400       .  A
C602        H613   1.083       .  S
C603        C612   1.368       .  A
C603        C604   1.387       .  A
C604        S610   1.713       .  A
C604        C605   1.405       .  A
C605        C606   1.406       .  A
C605        H614   1.084       .  S
C606        C609   1.374       .  A
S607        C608   1.722       .  A
C608        C609   1.388       .  A
C609        H615   1.084       .  S
S610        C611   1.725       .  A
C611        C612   1.385       .  A
C612        H616   1.083       .  S
C617        S623   1.704       .  A
C617        C622   1.387       .  A
C617        C618   1.401   1_565  A
C618        C619   1.401       .  A
C618        H629   1.084       .  S
C619        C628   1.372       .  A
C619        C620   1.387       .  A
C620        S626   1.709       .  A
C620        C621   1.405   1_545  A
C621        C622   1.405       .  A
C621        H630   1.083       .  S
C622        C625   1.375       .  A
S623        C624   1.721       .  A
C624        C625   1.389       .  A
C625        H631   1.083       .  S
S626        C627   1.725       .  A
C627        C628   1.386       .  A
C628        H632   1.084       .  S
C633        S639   1.701       .  A
C633        C638   1.387       .  A
C633        C634   1.397   1_556  A
C634        C635   1.398       .  A
C634        H645   1.085       .  S
C635        C644   1.366       .  A
C635        C636   1.387       .  A
C636        S642   1.714       .  A
C636        C637   1.407       .  A
C637        C638   1.408   1_554  A
C637        H646   1.082       .  S
C638        C641   1.377       .  A
S639        C640   1.721       .  A
C640        C641   1.390       .  A
C641        H647   1.082       .  S
S642        C643   1.725       .  A
C643        C644   1.383       .  A
C644        H648   1.085       .  S
C649        S655   1.703       .  A
C649        C654   1.387       .  A
C649        C650   1.400       .  A
C650        C651   1.400       .  A
C650        H661   1.083       .  S
C651        C660   1.369       .  A
C651        C652   1.387       .  A
C652        S658   1.711       .  A
C652        C653   1.405       .  A
C653        C654   1.406       .  A
C653        H662   1.084       .  S
C654        C657   1.376       .  A
S655        C656   1.723       .  A
C656        C657   1.388       .  A
C657        H663   1.084       .  S
S658        C659   1.725       .  A
C659        C660   1.385       .  A
C660        H664   1.083       .  S
C665        S671   1.709       .  A
C665        C670   1.387       .  A
C665        C666   1.402       .  A
C666        C667   1.403       .  A
C666        H677   1.083       .  S
C667        C676   1.373       .  A
C667        C668   1.387       .  A
C668        S674   1.709       .  A
C668        C669   1.403       .  A
C669        C670   1.404       .  A
C669        H678   1.084       .  S
C670        C673   1.372       .  A
S671        C672   1.723       .  A
C672        C673   1.388       .  A
C673        H679   1.084       .  S
S674        C675   1.724       .  A
C675        C676   1.387       .  A
C676        H680   1.083       .  S
C681        S687   1.699       .  A
C681        C686   1.387       .  A
C681        C682   1.397   1_565  A
C682        C683   1.397       .  A
C682        H693   1.084       .  S
C683        C692   1.366       .  A
C683        C684   1.386       .  A
C684        S690   1.718       .  A
C684        C685   1.411   1_545  A
C685        C686   1.411       .  A
C685        H694   1.082       .  S
C686        C689   1.382       .  A
S687        C688   1.721       .  A
C688        C689   1.393       .  A
C689        H695   1.082       .  S
S690        C691   1.728       .  A
C691        C692   1.385       .  A
C692        H696   1.084       .  S
C697        S703   1.709       .  A
C697        C702   1.387       .  A
C697        C698   1.403       .  A
C698        C699   1.404       .  A
C698        H709   1.084       .  S
C699        C708   1.373       .  A
C699        C700   1.387       .  A
C700        S706   1.708       .  A
C700        C701   1.402       .  A
C701        C702   1.403       .  A
C701        H710   1.083       .  S
C702        C705   1.372       .  A
S703        C704   1.724       .  A
C704        C705   1.387       .  A
C705        H711   1.083       .  S
S706        C707   1.723       .  A
C707        C708   1.388       .  A
C708        H712   1.084       .  S
C713        S719   1.713       .  A
C713        C718   1.386       .  A
C713        C714   1.407       .  A
C714        C715   1.407       .  A
C714        H725   1.082       .  S
C715        C724   1.378       .  A
C715        C716   1.387       .  A
C716        S722   1.704       .  A
C716        C717   1.401       .  A
C717        C718   1.401       .  A
C717        H726   1.084       .  S
C718        C721   1.371       .  A
S719        C720   1.725       .  A
C720        C721   1.387       .  A
C721        H727   1.085       .  S
S722        C723   1.723       .  A
C723        C724   1.390       .  A
C724        H728   1.082       .  S
C729        S735   1.709       .  A
C729        C734   1.387       .  A
C729        C730   1.404       .  A
C730        C731   1.405       .  A
C730        H741   1.084       .  S
C731        C740   1.374       .  A
C731        C732   1.387       .  A
C732        S738   1.706       .  A
C732        C733   1.401       .  A
C733        C734   1.402       .  A
C733        H742   1.083       .  S
C734        C737   1.372       .  A
S735        C736   1.725       .  A
C736        C737   1.386       .  A
C737        H743   1.083       .  S
S738        C739   1.722       .  A
C739        C740   1.389       .  A
C740        H744   1.084       .  S
C745        S751   1.709       .  A
C745        C750   1.387       .  A
C745        C746   1.401       .  A
C746        C747   1.402   1_556  A
C746        H757   1.084       .  S
C747        C756   1.368       .  A
C747        C748   1.387       .  A
C748        S754   1.710       .  A
C748        C749   1.402       .  A
C749        C750   1.403   1_554  A
C749        H758   1.083       .  S
C750        C753   1.370       .  A
S751        C752   1.723       .  A
C752        C753   1.387       .  A
C753        H759   1.083       .  S
S754        C755   1.723       .  A
C755        C756   1.386       .  A
C756        H760   1.084       .  S
C761        S767   1.704       .  A
C761        C766   1.387       .  A
C761        C762   1.401   1_655  A
C762        C763   1.402       .  A
C762        H773   1.083       .  S
C763        C772   1.372       .  A
C763        C764   1.387       .  A
C764        S770   1.710       .  A
C764        C765   1.405   1_455  A
C765        C766   1.405       .  A
C765        H774   1.080       .  S
C766        C769   1.377       .  A
S767        C768   1.722       .  A
C768        C769   1.389       .  A
C769        H775   1.081       .  S
S770        C771   1.724       .  A
C771        C772   1.388       .  A
C772        H776   1.084       .  S
C777        S783   1.705       .  A
C777        C782   1.387       .  A
C777        C778   1.401       .  A
C778        C779   1.402   1_554  A
C778        H789   1.084       .  S
C779        C788   1.371       .  A
C779        C780   1.386       .  A
C780        S786   1.713       .  A
C780        C781   1.407       .  A
C781        C782   1.407   1_556  A
C781        H790   1.081       .  S
C782        C785   1.378       .  A
S783        C784   1.724       .  A
C784        C785   1.390       .  A
C785        H791   1.081       .  S
S786        C787   1.726       .  A
C787        C788   1.387       .  A
C788        H792   1.084       .  S
C793        S799   1.701       .  A
C793        C798   1.387       .  A
C793        C794   1.397       .  A
C794        C795   1.398       .  A
C794        H805   1.084       .  S
C795        C804   1.367       .  A
C795        C796   1.386       .  A
C796        S802   1.716       .  A
C796        C797   1.408       .  A
C797        C798   1.409       .  A
C797        H806   1.083       .  S
C798        C801   1.378       .  A
S799        C800   1.720       .  A
C800        C801   1.390       .  A
C801        H807   1.083       .  S
S802        C803   1.727       .  A
C803        C804   1.385       .  A
C804        H808   1.084       .  S
C809        S815   1.712       .  A
C809        C814   1.386       .  A
C809        C810   1.406       .  A
C810        C811   1.406       .  A
C810        H821   1.082       .  S
C811        C820   1.375       .  A
C811        C812   1.387       .  A
C812        S818   1.709       .  A
C812        C813   1.403       .  A
C813        C814   1.403       .  A
C813        H822   1.083       .  S
C814        C817   1.373       .  A
S815        C816   1.726       .  A
C816        C817   1.388       .  A
C817        H823   1.083       .  S
S818        C819   1.722       .  A
C819        C820   1.390       .  A
C820        H824   1.082       .  S
C825        S831   1.709       .  A
C825        C830   1.387       .  A
C825        C826   1.403       .  A
C826        C827   1.404       .  A
C826        H837   1.083       .  S
C827        C836   1.373       .  A
C827        C828   1.387       .  A
C828        S834   1.709       .  A
C828        C829   1.402       .  A
C829        C830   1.403       .  A
C829        H838   1.084       .  S
C830        C833   1.371       .  A
S831        C832   1.724       .  A
C832        C833   1.386       .  A
C833        H839   1.084       .  S
S834        C835   1.724       .  A
C835        C836   1.388       .  A
C836        H840   1.083       .  S
C841        S847   1.709       .  A
C841        C846   1.387       .  A
C841        C842   1.404   1_655  A
C842        C843   1.405       .  A
C842        H853   1.083       .  S
C843        C852   1.375       .  A
C843        C844   1.387       .  A
C844        S850   1.705       .  A
C844        C845   1.402   1_455  A
C845        C846   1.402       .  A
C845        H854   1.083       .  S
C846        C849   1.373       .  A
S847        C848   1.725       .  A
C848        C849   1.387       .  A
C849        H855   1.083       .  S
S850        C851   1.723       .  A
C851        C852   1.389       .  A
C852        H856   1.084       .  S
C857        S863   1.707       .  A
C857        C862   1.387       .  A
C857        C858   1.402       .  A
C858        C859   1.402       .  A
C858        H869   1.082       .  S
C859        C868   1.371       .  A
C859        C860   1.387       .  A
C860        S866   1.708       .  A
C860        C861   1.402       .  A
C861        C862   1.403       .  A
C861        H870   1.084       .  S
C862        C865   1.373       .  A
S863        C864   1.724       .  A
C864        C865   1.387       .  A
C865        H871   1.084       .  S
S866        C867   1.723       .  A
C867        C868   1.386       .  A
C868        H872   1.082       .  S
C873        S879   1.716       .  A
C873        C878   1.386       .  A
C873        C874   1.409       .  A
C874        C875   1.410       .  A
C874        H885   1.082       .  S
C875        C884   1.380       .  A
C875        C876   1.387       .  A
C876        S882   1.704       .  A
C876        C877   1.399       .  A
C877        C878   1.400       .  A
C877        H886   1.083       .  S
C878        C881   1.369       .  A
S879        C880   1.727       .  A
C880        C881   1.385       .  A
C881        H887   1.083       .  S
S882        C883   1.722       .  A
C883        C884   1.392       .  A
C884        H888   1.082       .  S
C889        S895   1.709       .  A
C889        C894   1.387       .  A
C889        C890   1.403   1_455  A
C890        C891   1.404       .  A
C890        H901   1.083       .  S
C891        C900   1.372       .  A
C891        C892   1.387       .  A
C892        S898   1.706       .  A
C892        C893   1.401   1_655  A
C893        C894   1.402       .  A
C893        H902   1.083       .  S
C894        C897   1.370       .  A
S895        C896   1.723       .  A
C896        C897   1.387       .  A
C897        H903   1.083       .  S
S898        C899   1.723       .  A
C899        C900   1.387       .  A
C900        H904   1.083       .  S
C905        S911   1.710       .  A
C905        C910   1.387       .  A
C905        C906   1.404       .  A
C906        C907   1.405   1_554  A
C906        H917   1.084       .  S
C907        C916   1.374       .  A
C907        C908   1.387       .  A
C908        S914   1.710       .  A
C908        C909   1.403       .  A
C909        C910   1.404   1_556  A
C909        H918   1.083       .  S
C910        C913   1.373       .  A
S911        C912   1.724       .  A
C912        C913   1.388       .  A
C913        H919   1.083   1_554  S
S914        C915   1.724       .  A
C915        C916   1.389       .  A
C916        H920   1.084       .  S
C921        S927   1.699       .  A
C921        C926   1.387       .  A
C921        C922   1.397   1_545  A
C922        C923   1.397       .  A
C922        H933   1.084       .  S
C923        C932   1.366       .  A
C923        C924   1.387       .  A
C924        S930   1.712       .  A
C924        C925   1.407       .  A
C925        C926   1.407   1_565  A
C925        H934   1.082       .  S
C926        C929   1.378       .  A
S927        C928   1.721       .  A
C928        C929   1.390       .  A
C929        H935   1.082       .  S
S930        C931   1.725       .  A
C931        C932   1.383       .  A
C932        H936   1.084       .  S
C937        S943   1.711       .  A
C937        C942   1.387       .  A
C937        C938   1.403       .  A
C938        C939   1.404   1_556  A
C938        H949   1.084       .  S
C939        C948   1.371       .  A
C939        C940   1.387       .  A
C940        S946   1.706       .  A
C940        C941   1.399       .  A
C941        C942   1.401   1_554  A
C941        H950   1.084       .  S
C942        C945   1.368       .  A
S943        C944   1.724       .  A
C944        C945   1.386       .  A
C945        H951   1.084   1_556  S
S946        C947   1.721       .  A
C947        C948   1.388       .  A
C948        H952   1.083       .  S
C953        S959   1.702       .  A
C953        C958   1.387       .  A
C953        C954   1.398   1_556  A
C954        C955   1.399       .  A
C954        H965   1.084       .  S
C955        C964   1.368       .  A
C955        C956   1.386       .  A
C956        S962   1.714       .  A
C956        C957   1.406       .  A
C957        C958   1.407   1_554  A
C957        H966   1.081       .  S
C958        C961   1.375       .  A
S959        C960   1.720       .  A
C960        C961   1.389       .  A
C961        H967   1.081       .  S
S962        C963   1.726       .  A
C963        C964   1.385       .  A
C964        H968   1.084       .  S
C969        S975   1.699       .  A
C969        C974   1.388       .  A
C969        C970   1.395   1_455  A
C970        C971   1.397       .  A
C970        H981   1.082       .  S
C971        C980   1.363       .  A
C971        C972   1.386       .  A
C972        S978   1.713       .  A
C972        C973   1.405   1_655  A
C973        C974   1.406       .  A
C973        H982   1.083       .  S
C974        C977   1.375       .  A
S975        C976   1.720       .  A
C976        C977   1.388       .  A
C977        H983   1.083       .  S
S978        C979   1.725       .  A
C979        C980   1.383       .  A
C980        H984   1.082       .  S
C985        S991   1.709       .  A
C985        C990   1.387       .  A
C985        C986   1.403       .  A
C986        C987   1.404       .  A
C986        H997   1.083       .  S
C987        C996   1.373       .  A
C987        C988   1.387       .  A
C988        S994   1.708       .  A
C988        C989   1.402       .  A
C989        C990   1.403       .  A
C989        H998   1.083       .  S
C990        C993   1.372       .  A
S991        C992   1.724       .  A
C992        C993   1.387       .  A
C993        H999   1.083       .  S
S994        C995   1.723       .  A
C995        C996   1.388       .  A
C996       H1000   1.083       .  S
C1001      S1007   1.712       .  A
C1001      C1006   1.386       .  A
C1001      C1002   1.405       .  A
C1002      C1003   1.406       .  A
C1002      H1013   1.084       .  S
C1003      C1012   1.374       .  A
C1003      C1004   1.387       .  A
C1004      S1010   1.707       .  A
C1004      C1005   1.400       .  A
C1005      C1006   1.402       .  A
C1005      H1014   1.082       .  S
C1006      C1009   1.370       .  A
S1007      C1008   1.725       .  A
C1008      C1009   1.386       .  A
C1009      H1015   1.082       .  S
S1010      C1011   1.722       .  A
C1011      C1012   1.389       .  A
C1012      H1016   1.084       .  S
C1017      S1023   1.706       .  A
C1017      C1022   1.387       .  A
C1017      C1018   1.402   1_545  A
C1018      C1019   1.402       .  A
C1018      H1029   1.083       .  S
C1019      C1028   1.372       .  A
C1019      C1020   1.386       .  A
C1020      S1026   1.712       .  A
C1020      C1021   1.406   1_565  A
C1021      C1022   1.406       .  A
C1021      H1030   1.084       .  S
C1022      C1025   1.376       .  A
S1023      C1024   1.723       .  A
C1024      C1025   1.389       .  A
C1025      H1031   1.084       .  S
S1026      C1027   1.725       .  A
C1027      C1028   1.387       .  A
C1028      H1032   1.083       .  S
C1033      S1039   1.705       .  A
C1033      C1038   1.387       .  A
C1033      C1034   1.399       .  A
C1034      C1035   1.400       .  A
C1034      H1045   1.083       .  S
C1035      C1044   1.369       .  A
C1035      C1036   1.387       .  A
C1036      S1042   1.710       .  A
C1036      C1037   1.404       .  A
C1037      C1038   1.404       .  A
C1037      H1046   1.083       .  S
C1038      C1041   1.372       .  A
S1039      C1040   1.721       .  A
C1040      C1041   1.388       .  A
C1041      H1047   1.084       .  S
S1042      C1043   1.725       .  A
C1043      C1044   1.385       .  A
C1044      H1048   1.083       .  S
C1049      S1055   1.706       .  A
C1049      C1054   1.387       .  A
C1049      C1050   1.401       .  A
C1050      C1051   1.402       .  A
C1050      H1061   1.082       .  S
C1051      C1060   1.371       .  A
C1051      C1052   1.387       .  A
C1052      S1058   1.710       .  A
C1052      C1053   1.405       .  A
C1053      C1054   1.405       .  A
C1053      H1062   1.083       .  S
C1054      C1057   1.374       .  A
S1055      C1056   1.723       .  A
C1056      C1057   1.388       .  A
C1057      H1063   1.083       .  S
S1058      C1059   1.725       .  A
C1059      C1060   1.386       .  A
C1060      H1064   1.082       .  S
C1065      S1071   1.713       .  A
C1065      C1070   1.387       .  A
C1065      C1066   1.406       .  A
C1066      C1067   1.407       .  A
C1066      H1077   1.083       .  S
C1067      C1076   1.377       .  A
C1067      C1068   1.387       .  A
C1068      S1074   1.701       .  A
C1068      C1069   1.398       .  A
C1069      C1070   1.399       .  A
C1069      H1078   1.083       .  S
C1070      C1073   1.368       .  A
S1071      C1072   1.724       .  A
C1072      C1073   1.385       .  A
C1073      H1079   1.083       .  S
S1074      C1075   1.721       .  A
C1075      C1076   1.389       .  A
C1076      H1080   1.083       .  S
