geometry optimzed in LAMMPS
_audit_creation_date              2020-12-01 
_audit_creation_method            'lammps2cif' 
_symmetry_space_group_name_H-M    'P1' 
_symmetry_Int_Tables_number       1 
_symmetry_cell_setting            triclinic 
loop_ 
_symmetry_equiv_pos_as_xyz 
  x,y,z 
_cell_length_a                    44.35384797 
_cell_length_b                    43.77177401412801 
_cell_length_c                    42.6771435713728 
_cell_angle_alpha                 88.94900446099317 
_cell_angle_beta                  90.4916529429116 
_cell_angle_gamma                 90.04225609499382 
loop_ 
_atom_site_label 
_atom_site_type_symbol 
_atom_site_fract_x 
_atom_site_fract_y 
_atom_site_fract_z 
_atom_site_charge 
O1          O  0.45888363  0.09639785  0.22301786    -0.70400
O2          O  0.04252656  0.09742237  0.26312425    -0.71400
O3          O  0.48208554  0.09521466  0.28526003    -0.60000
O4          O  0.01945822  0.09619580  0.20070070    -0.68400
O5          O  0.01949121  0.14695060  0.19886521    -0.67900
O6          O  0.48079864  0.14596337  0.28504540    -0.59200
O7          O  0.04063602  0.14816027  0.26175297    -0.71700
O8          O  0.45945550  0.14717435  0.22228659    -0.70500
Cu9        Cu  0.00076612  0.09447987  0.24299621     1.04600
Cu10       Cu  0.50006591  0.14881434  0.24192664     1.04300
C11         C  0.44613312  0.12209047  0.21679747     0.95800
C12         C  0.05443255  0.12346633  0.26869465     0.95000
C13         C  0.47539626  0.12012826  0.29844491     0.87100
C14         C  0.02570080  0.12125595  0.18657330     0.93400
C15         C  0.40354177  0.12423891  0.42779846     0.89100
C16         C  0.37757533  0.10595510  0.41395509    -0.51200
C17         C  0.38663746  0.08215129  0.39633121     0.12000
C18         C  0.42117477  0.07855464  0.39431612     0.22900
C19         C  0.42275238  0.10093509  0.44629864    -0.52100
C20         C  0.43208728  0.07693504  0.42884374     0.12100
C21         C  0.42284232  0.13399970  0.39971201    -0.51400
C22         C  0.43202620  0.11009117  0.38209889     0.12700
H23         H  0.35397715  0.11138039  0.41770549     0.17200
H24         H  0.42850748  0.05902759  0.37996525     0.02900
H25         H  0.42825998  0.10307833  0.47104805     0.17500
H26         H  0.42815080  0.15765988  0.39386697     0.17300
O27         O  0.23763957  0.05183176  0.34771154    -0.70400
O28         O  0.27618680  0.46974672  0.35291150    -0.71400
O29         O  0.21596239  0.49079248  0.35271246    -0.60000
O30         O  0.29855358  0.03017479  0.34892464    -0.68400
O31         O  0.29862565  0.03235458  0.40091656    -0.67900
O32         O  0.21745315  0.49355638  0.40466233    -0.59200
O33         O  0.27738815  0.47151813  0.40494853    -0.71700
O34         O  0.23804552  0.05482622  0.39964057    -0.70500
Cu35       Cu  0.25705994  0.01066570  0.34871568     1.04600
Cu36       Cu  0.25794403  0.01327034  0.40436066     1.04300
C37         C  0.23115928  0.06597535  0.37261233     0.95800
C38         C  0.28276488  0.45769594  0.37947698     0.95000
C39         C  0.20415937  0.48559446  0.37952648     0.87100
C40         C  0.31165016  0.03680950  0.37472884     0.93400
O41         O  0.26248364  0.03110488  0.15692309    -0.70400
O42         O  0.22547567  0.44808107  0.15394383    -0.71400
O43         O  0.28512466  0.47081097  0.15946697    -0.60000
O44         O  0.20295521  0.00899292  0.15070059    -0.68400
O45         O  0.20767219  0.00881225  0.09885114    -0.67900
O46         O  0.28863898  0.47151056  0.10747928    -0.59200
O47         O  0.22946683  0.44769176  0.10207176    -0.71700
O48         O  0.26681342  0.03195429  0.10504951    -0.70500
Cu49       Cu  0.24378295  0.48963804  0.15710627     1.04600
Cu50       Cu  0.24825720  0.48993124  0.10153225     1.04300
C51         C  0.27057438  0.04452129  0.13160310     0.95800
C52         C  0.22172551  0.43476149  0.12787642     0.95000
C53         C  0.29978359  0.46566662  0.13449969     0.87100
C54         C  0.19290968  0.01547527  0.12323911     0.93400
C55         C  0.31721656  0.12268672  0.14913591     0.89100
C56         C  0.30075216  0.14518071  0.17010015    -0.51200
C57         C  0.31850767  0.16854627  0.18018449     0.12000
C58         C  0.35141039  0.16702904  0.16842986     0.22900
C59         C  0.33035811  0.14228300  0.12237452    -0.51900
C60         C  0.34843646  0.16546651  0.13250071     0.12100
C61         C  0.34457546  0.11173206  0.16830269    -0.51400
C62         C  0.36262689  0.13481725  0.17817727     0.12700
H63         H  0.27710543  0.14297276  0.17621358     0.17200
H64         H  0.36609355  0.18591151  0.17660522     0.02900
H65         H  0.32602726  0.13804289  0.09771643     0.17500
H66         H  0.34988316  0.08778634  0.17256353     0.17300
O67         O  0.40654504  0.21230189  0.48687747    -0.70400
O68         O  0.40451811  0.29039536  0.03143551    -0.71400
O69         O  0.40224715  0.22775300  0.05092150    -0.60000
O70         O  0.40587247  0.27452576  0.46714823    -0.68400
O71         O  0.35579696  0.27366780  0.46561797    -0.67900
O72         O  0.35228489  0.22850455  0.04682736    -0.59200
O73         O  0.35443237  0.29144586  0.02921413    -0.71700
O74         O  0.35651442  0.21104289  0.48333761    -0.70500
Cu75       Cu  0.40657280  0.25127070  0.00924094     1.04600
Cu76       Cu  0.35298758  0.25118393  0.00619846     1.04300
C77         C  0.38239482  0.19941180  0.47791082     0.95800
C78         C  0.37964529  0.30336620  0.03730294     0.95000
C79         C  0.37615909  0.22060532  0.06154151     0.87100
C80         C  0.38083642  0.28118792  0.45340958     0.93400
C81         C  0.32744668  0.37880208  0.36423509     0.89100
C82         C  0.35458263  0.38896397  0.34474659    -0.51200
C83         C  0.37132557  0.36531163  0.33421977     0.12000
C84         C  0.35935072  0.33344898  0.34402840     0.22900
C85         C  0.30954306  0.35718087  0.34322498    -0.51900
C86         C  0.32614202  0.33335477  0.33255396     0.12100
C87         C  0.34053763  0.35858025  0.39058026    -0.51400
C88         C  0.35743938  0.33488868  0.38009481     0.12700
H89         H  0.36032740  0.41273355  0.34010897     0.17200
H90         H  0.37305257  0.31412689  0.33544929     0.02900
H91         H  0.28590617  0.36049242  0.33720208     0.17500
H92         H  0.33700400  0.36275596  0.41531635     0.17300
C93         C  0.37842748  0.42441658  0.11795798     0.89100
C94         C  0.39896197  0.41019135  0.14304496    -0.51200
C95         C  0.42211684  0.39376365  0.13110556     0.12000
C96         C  0.42273542  0.39337956  0.09492892     0.22900
C97         C  0.39908605  0.44367642  0.09684932    -0.51900
C98         C  0.42232993  0.42745735  0.08464644     0.12100
C99         C  0.36803080  0.39783148  0.09780258    -0.51400
C100        C  0.39114303  0.38156867  0.08578889     0.12700
H101        H  0.39542473  0.41268453  0.16804851     0.17200
H102        H  0.44163205  0.38001354  0.08515036     0.02900
H103        H  0.39541430  0.46779019  0.09163984     0.17500
H104        H  0.34448831  0.39207863  0.09376817     0.17300
O105        O  0.46254265  0.40042394  0.27841089    -0.70400
O106        O  0.04292666  0.39684529  0.23373956    -0.71400
O107        O  0.48154984  0.39693392  0.21510850    -0.60000
O108        O  0.02438338  0.40261497  0.29683630    -0.68400
O109        O  0.02470164  0.35204903  0.30248839    -0.67900
O110        O  0.48054690  0.34622930  0.21873058    -0.59200
O111        O  0.04150711  0.34623519  0.23898869    -0.71700
O112        O  0.46325494  0.34974193  0.28261499    -0.70500
Cu113      Cu  0.00282012  0.40101679  0.25588937     1.04600
Cu114      Cu  0.00245508  0.34679424  0.26091484     1.04300
C115        C  0.45044753  0.37519102  0.28737708     0.95800
C116        C  0.05453641  0.37049724  0.22944058     0.95000
C117        C  0.47447139  0.37116945  0.20383858     0.87100
C118        C  0.03169348  0.37861432  0.31236874     0.93400
C119        C  0.13128261  0.14653823  0.31532640     0.89100
C120        C  0.12020868  0.16600928  0.34236356    -0.51200
C121        C  0.14284465  0.17782954  0.36015123     0.12000
C122        C  0.17481018  0.16918782  0.34908630     0.22900
C123        C  0.15273104  0.16737452  0.29653521    -0.51900
C124        C  0.17567927  0.17918243  0.31417777     0.12100
C125        C  0.15157709  0.12219861  0.33064847    -0.51400
C126        C  0.17445120  0.13399515  0.34823600     0.12700
H127        H  0.09650815  0.16963674  0.34737741     0.17200
H128        H  0.19341294  0.17870443  0.36353741     0.02900
H129        H  0.15027270  0.17195907  0.27155049     0.17500
H130        H  0.14856319  0.09782799  0.32731351     0.17300
C131        C  0.12880520  0.43551336  0.39934619     0.89100
C132        C  0.10928073  0.42260567  0.37291689    -0.51200
C133        C  0.08616113  0.40462620  0.38336999     0.12000
C134        C  0.08462375  0.40134956  0.41934107     0.22900
C135        C  0.10682949  0.45238703  0.42043820    -0.51900
C136        C  0.08354258  0.43469614  0.43085663     0.12100
C137        C  0.13931026  0.40750838  0.41858673    -0.51400
C138        C  0.11628825  0.38940891  0.42889211     0.12700
H139        H  0.11334414  0.42725744  0.34818773     0.17200
H140        H  0.06573165  0.38675555  0.42773884     0.02900
H141        H  0.10916388  0.47637578  0.42614690     0.17500
H142        H  0.16288482  0.40191178  0.42271153     0.17300
C143        C  0.12957613  0.34714809  0.18122371     0.89100
C144        C  0.11903680  0.32760797  0.15387642    -0.51200
C145        C  0.14202902  0.31689307  0.13624583     0.12000
C146        C  0.17376218  0.32648344  0.14787494     0.22900
C147        C  0.15172125  0.32697966  0.20011124    -0.51900
C148        C  0.17503173  0.31613492  0.18277956     0.12100
C149        C  0.14885461  0.37232886  0.16643652    -0.51400
C150        C  0.17198291  0.36165059  0.14898201     0.12700
H151        H  0.09544782  0.32349641  0.14829287     0.17200
H152        H  0.19264397  0.31788530  0.13354984     0.02900
H153        H  0.14956853  0.32232464  0.22511574     0.17500
H154        H  0.14479363  0.39653561  0.16974714     0.17300
C155        C  0.11994054  0.06723810  0.09972390     0.89100
C156        C  0.10001759  0.08030087  0.12524547    -0.51200
C157        C  0.07742413  0.09858976  0.11388743     0.12000
C158        C  0.07677196  0.10194738  0.07776353     0.22900
C159        C  0.09844447  0.05070017  0.07762944    -0.51900
C160        C  0.07574230  0.06864544  0.06607049     0.12100
C161        C  0.13138456  0.09501793  0.08100793    -0.51400
C162        C  0.10887075  0.11333472  0.06955087     0.12700
H163        H  0.10341992  0.07548395  0.15010642     0.17200
H164        H  0.05827963  0.11674089  0.06849932     0.02900
H165        H  0.10061595  0.02667584  0.07209351     0.17500
H166        H  0.15512657  0.10003954  0.07759387     0.17300
O167        O  0.10270971  0.29151107  0.47580772    -0.70400
O168        O  0.10008768  0.20927721  0.01685934    -0.71400
O169        O  0.10302130  0.27006145  0.03927285    -0.60000
O170        O  0.10323034  0.23023034  0.45334768    -0.68400
O171        O  0.15326762  0.22979784  0.45577810    -0.67900
O172        O  0.15307140  0.26811578  0.03923727    -0.59200
O173        O  0.15009208  0.20680097  0.01858767    -0.71700
O174        O  0.15277440  0.29159977  0.47661137    -0.70500
Cu175      Cu  0.10048912  0.25032987  0.99622737     1.04600
Cu176      Cu  0.15405528  0.24903968  0.99754135     1.04300
C177        C  0.12761184  0.30478341  0.47000766     0.95800
C178        C  0.12415487  0.19507402  0.02434276     0.95000
C179        C  0.12857034  0.27507684  0.05254113     0.87100
C180        C  0.12883793  0.22364683  0.44143988     0.93400
C181        C  0.47803217  0.47449740  0.02359099     0.89100
C182        C  0.50027388  0.45594326  0.00433657    -0.51200
C183        C  0.01759807  0.47334856  0.48468437     0.12000
C184        C  0.01098201  0.00805038  0.48609691     0.22900
C185        C  0.49741708  0.49814021  0.04061762    -0.51900
C186        C  0.01457455  0.01584766  0.02106754     0.12100
C187        C  0.45956055  0.49318210  0.99943200    -0.51400
C188        C  0.47673638  0.01088704  0.47982542     0.12700
H189        H  0.00229728  0.43123656  0.00623978     0.17200
H190        H  0.02507868  0.02237269  0.47020889     0.02900
H191        H  0.99756844  0.50065061  0.06592507     0.17500
H192        H  0.43506026  0.49323248  0.99864138     0.17300
C193        C  0.28033210  0.27367586  0.27519671     0.89100
C194        C  0.25960297  0.29148108  0.25230244    -0.51200
C195        C  0.24205443  0.27327921  0.23390417     0.12000
C196        C  0.24703475  0.23874542  0.24008599     0.22900
C197        C  0.25905429  0.25261012  0.29388702    -0.51900
C198        C  0.24149273  0.23437676  0.27558942     0.12100
C199        C  0.29868162  0.25230681  0.25464349    -0.51400
C200        C  0.28139115  0.23394265  0.23624803     0.12700
H201        H  0.25837876  0.31628618  0.25130052     0.17200
H202        H  0.23282719  0.22383956  0.22518924     0.02900
H203        H  0.25760499  0.25255097  0.31930842     0.17500
H204        H  0.32318571  0.25158517  0.25481201     0.17300
C205        C  0.11542733  0.14162509  0.05284042    -0.10700
C206        C  0.12117065  0.16561760  0.03966698    -0.12300
C207        C  0.05233720  0.05545863  0.04664206    -0.10700
C208        C  0.03466132  0.03910937  0.03311051    -0.12300
C209        C  0.13607648  0.30090782  0.10750135    -0.10700
C210        C  0.13070084  0.28888281  0.08280735    -0.12300
C211        C  0.21922505  0.28596707  0.21264209    -0.10700
C212        C  0.19955223  0.29870547  0.19733080    -0.12300
C213        C  0.12643570  0.33508361  0.45604651    -0.10700
C214        C  0.12193137  0.36009631  0.44428512    -0.12300
C215        C  0.04042787  0.45970614  0.46511966    -0.10700
C216        C  0.05958767  0.44744701  0.44960685    -0.12300
C217        C  0.13651974  0.19520034  0.38791726    -0.10700
C218        C  0.13108614  0.20863608  0.41175621    -0.12300
C219        C  0.19925842  0.19823596  0.30059545    -0.10700
C220        C  0.21864128  0.21420013  0.28882640    -0.12300
C221        C  0.10454678  0.35922565  0.19943639    -0.10700
C222        C  0.08244601  0.36714008  0.21331693    -0.12300
C223        C  0.06514472  0.39065755  0.36185693    -0.10700
C224        C  0.04897429  0.38237207  0.34071983    -0.12300
C225        C  0.45871696  0.37134447  0.17430330    -0.10700
C226        C  0.44345927  0.37874897  0.15188995    -0.12300
C227        C  0.44344926  0.44154949  0.06304565    -0.10700
C228        C  0.45944940  0.45566098  0.04504582    -0.12300
C229        C  0.42202511  0.37460903  0.30316970    -0.10700
C230        C  0.39868041  0.37048922  0.31690352    -0.12300
C231        C  0.29905304  0.29354514  0.29524834    -0.10700
C232        C  0.31286993  0.31076322  0.31208114    -0.12300
C233        C  0.38089496  0.33171006  0.05343481    -0.10700
C234        C  0.38561945  0.35477089  0.06761588    -0.12300
C235        C  0.37967352  0.29807213  0.42416133    -0.10700
C236        C  0.37190162  0.31376621  0.40192766    -0.12300
C237        C  0.37253852  0.20253177  0.08980209    -0.10700
C238        C  0.36340959  0.18616535  0.11081171    -0.12300
C239        C  0.30647398  0.19253936  0.19956743    -0.10700
C240        C  0.29478117  0.21154960  0.21584032    -0.12300
C241        C  0.19302895  0.38274536  0.13479063    -0.10700
C242        C  0.20767330  0.40518248  0.12829968    -0.12300
C243        C  0.32926341  0.45292331  0.13596909    -0.10700
C244        C  0.35297772  0.44110975  0.13050796    -0.12300
C245        C  0.16531591  0.03185121  0.11917947    -0.10700
C246        C  0.14409010  0.04754336  0.11186404    -0.12300
C247        C  0.28484352  0.07384494  0.13356396    -0.10700
C248        C  0.29844070  0.09708093  0.13882320    -0.12300
C249        C  0.29689373  0.42833472  0.37997620    -0.10700
C250        C  0.30992215  0.40481044  0.37511590    -0.12300
C251        C  0.15391206  0.45468084  0.38833528    -0.10700
C252        C  0.17602770  0.46958208  0.38212447    -0.12300
C253        C  0.21428501  0.09392069  0.36957293    -0.10700
C254        C  0.19720985  0.11433541  0.36218253    -0.12300
C255        C  0.39289216  0.14981135  0.44635151    -0.10700
C256        C  0.38539458  0.17173639  0.46098819    -0.12300
C257        C  0.36447271  0.06274343  0.38189680    -0.10700
C258        C  0.34137946  0.04978522  0.37513878    -0.12300
C259        C  0.44974793  0.05217750  0.44274581    -0.10700
C260        C  0.46317367  0.03279709  0.45796819    -0.12300
C261        C  0.41621870  0.12364993  0.20374357    -0.10700
C262        C  0.39149427  0.12865287  0.19280228    -0.12300
C263        C  0.10627953  0.13369314  0.29690996    -0.10700
C264        C  0.08352447  0.12601266  0.28345642    -0.12300
C265        C  0.05631428  0.11246052  0.13501523    -0.10700
C266        C  0.04104783  0.11963317  0.15703863    -0.12300
C267        C  0.46120671  0.11848218  0.32862358    -0.10700
C268        C  0.44850170  0.11469445  0.35332297    -0.12300
O269        O  0.45888361  0.09639785  0.72301782    -0.70400
O270        O  0.04252651  0.09742239  0.76312421    -0.71400
O271        O  0.48208545  0.09521456  0.78525997    -0.60000
O272        O  0.01945816  0.09619589  0.70070063    -0.68400
O273        O  0.01949104  0.14695068  0.69886512    -0.67900
O274        O  0.48079871  0.14596328  0.78504543    -0.59200
O275        O  0.04063597  0.14816029  0.76175284    -0.71700
O276        O  0.45945549  0.14717435  0.72228666    -0.70500
Cu277      Cu  0.00076612  0.09447984  0.74299614     1.04600
Cu278      Cu  0.50006595  0.14881431  0.74192661     1.04300
C279        C  0.44613310  0.12209047  0.71679750     0.95800
C280        C  0.05443249  0.12346637  0.76869457     0.95000
C281        C  0.47539624  0.12012816  0.79844489     0.87100
C282        C  0.02570072  0.12125602  0.68657323     0.93400
C283        C  0.40354174  0.12423892  0.92779845     0.89100
C284        C  0.37757549  0.10595504  0.91395512    -0.51200
C285        C  0.38663744  0.08215126  0.89633125     0.12000
C286        C  0.42117479  0.07855461  0.89431613     0.22900
C287        C  0.42275242  0.10093516  0.94629877    -0.52100
C288        C  0.43208728  0.07693509  0.92884374     0.12100
C289        C  0.42284234  0.13399990  0.89971190    -0.51400
C290        C  0.43202613  0.11009110  0.88209884     0.12700
H291        H  0.35397648  0.11138048  0.91770563     0.17200
H292        H  0.42850748  0.05902762  0.87996537     0.02900
H293        H  0.42825988  0.10307835  0.97104747     0.17500
H294        H  0.42815052  0.15765885  0.89386709     0.17300
O295        O  0.23763945  0.05183168  0.84771156    -0.70400
O296        O  0.27618676  0.46974671  0.85291146    -0.71400
O297        O  0.21596242  0.49079243  0.85271250    -0.60000
O298        O  0.29855356  0.03017472  0.84892467    -0.68400
O299        O  0.29862558  0.03235457  0.90091655    -0.67900
O300        O  0.21745308  0.49355651  0.90466236    -0.59200
O301        O  0.27738822  0.47151824  0.90494848    -0.71700
O302        O  0.23804550  0.05482623  0.89964056    -0.70500
Cu303      Cu  0.25705990  0.01066564  0.84871570     1.04600
Cu304      Cu  0.25794395  0.01327042  0.90436058     1.04300
C305        C  0.23115917  0.06597529  0.87261234     0.95800
C306        C  0.28276490  0.45769601  0.87947696     0.95000
C307        C  0.20415936  0.48559446  0.87952651     0.87100
C308        C  0.31165016  0.03680943  0.87472886     0.93400
O309        O  0.26248363  0.03110484  0.65692310    -0.70400
O310        O  0.22547565  0.44808112  0.65394379    -0.71400
O311        O  0.28512467  0.47081105  0.65946701    -0.60000
O312        O  0.20295511  0.00899296  0.65070063    -0.68400
O313        O  0.20767208  0.00881228  0.59885118    -0.67900
O314        O  0.28863891  0.47151066  0.60747932    -0.59200
O315        O  0.22946671  0.44769180  0.60207170    -0.71700
O316        O  0.26681328  0.03195426  0.60504952    -0.70500
Cu317      Cu  0.24378291  0.48963806  0.65710628     1.04600
Cu318      Cu  0.24825708  0.48993131  0.60153226     1.04300
C319        C  0.27057431  0.04452124  0.63160307     0.95800
C320        C  0.22172545  0.43476151  0.62787640     0.95000
C321        C  0.29978359  0.46566673  0.63449971     0.87100
C322        C  0.19290961  0.01547531  0.62323915     0.93400
C323        C  0.31721655  0.12268672  0.64913586     0.89100
C324        C  0.30075215  0.14518064  0.67010015    -0.51200
C325        C  0.31850766  0.16854621  0.68018450     0.12000
C326        C  0.35141037  0.16702896  0.66842984     0.22900
C327        C  0.33035813  0.14228296  0.62237449    -0.51900
C328        C  0.34843650  0.16546646  0.63250066     0.12100
C329        C  0.34457546  0.11173190  0.66830262    -0.51400
C330        C  0.36262688  0.13481720  0.67817724     0.12700
H331        H  0.27710542  0.14297269  0.67621364     0.17200
H332        H  0.36609362  0.18591155  0.67660525     0.02900
H333        H  0.32602731  0.13804280  0.59771634     0.17500
H334        H  0.34988300  0.08778677  0.67256325     0.17300
O335        O  0.40654507  0.21230197  0.98687743    -0.70400
O336        O  0.40451799  0.29039534  0.53143555    -0.71400
O337        O  0.40224716  0.22775309  0.55092153    -0.60000
O338        O  0.40587247  0.27452585  0.96714821    -0.68400
O339        O  0.35579696  0.27366777  0.96561796    -0.67900
O340        O  0.35228490  0.22850469  0.54682740    -0.59200
O341        O  0.35443224  0.29144596  0.52921412    -0.71700
O342        O  0.35651444  0.21104294  0.98333761    -0.70500
Cu343      Cu  0.40657281  0.25127066  0.50924097     1.04600
Cu344      Cu  0.35298759  0.25118400  0.50619847     1.04300
C345        C  0.38239484  0.19941187  0.97791083     0.95800
C346        C  0.37964518  0.30336625  0.53730297     0.95000
C347        C  0.37615911  0.22060546  0.56154156     0.87100
C348        C  0.38083642  0.28118796  0.95340957     0.93400
C349        C  0.32744667  0.37880205  0.86423510     0.89100
C350        C  0.35458263  0.38896413  0.84474660    -0.51200
C351        C  0.37132558  0.36531166  0.83421981     0.12000
C352        C  0.35935074  0.33344903  0.84402841     0.22900
C353        C  0.30954307  0.35718083  0.84322499    -0.51900
C354        C  0.32614206  0.33335474  0.83255394     0.12100
C355        C  0.34053759  0.35858025  0.89058030    -0.51400
C356        C  0.35743935  0.33488865  0.88009481     0.12700
H357        H  0.36032718  0.41273297  0.84010913     0.17200
H358        H  0.37305271  0.31412688  0.83544923     0.02900
H359        H  0.28590620  0.36049231  0.83720213     0.17500
H360        H  0.33700395  0.36275592  0.91531620     0.17300
C361        C  0.37842748  0.42441655  0.61795798     0.89100
C362        C  0.39896191  0.41019132  0.64304509    -0.51200
C363        C  0.42211686  0.39376367  0.63110556     0.12000
C364        C  0.42273539  0.39337962  0.59492896     0.22900
C365        C  0.39908603  0.44367658  0.59684932    -0.51900
C366        C  0.42232992  0.42745732  0.58464640     0.12100
C367        C  0.36803083  0.39783152  0.59780258    -0.51400
C368        C  0.39114306  0.38156866  0.58578889     0.12700
H369        H  0.39542475  0.41268436  0.66804793     0.17200
H370        H  0.44163230  0.38001346  0.58515027     0.02900
H371        H  0.39541447  0.46778951  0.59164010     0.17500
H372        H  0.34448824  0.39207864  0.59376807     0.17300
O373        O  0.46254271  0.40042386  0.77841091    -0.70400
O374        O  0.04292665  0.39684527  0.73373947    -0.71400
O375        O  0.48154977  0.39693389  0.71510855    -0.60000
O376        O  0.02438346  0.40261492  0.79683632    -0.68400
O377        O  0.02470165  0.35204900  0.80248841    -0.67900
O378        O  0.48054699  0.34622928  0.71873058    -0.59200
O379        O  0.04150700  0.34623519  0.73898869    -0.71700
O380        O  0.46325497  0.34974187  0.78261497    -0.70500
Cu381      Cu  0.00282016  0.40101674  0.75588937     1.04600
Cu382      Cu  0.00245498  0.34679428  0.76091487     1.04300
C383        C  0.45044755  0.37519095  0.78737703     0.95800
C384        C  0.05453632  0.37049723  0.72944050     0.95000
C385        C  0.47447138  0.37116944  0.70383862     0.87100
C386        C  0.03169355  0.37861431  0.81236876     0.93400
C387        C  0.13128262  0.14653820  0.81532641     0.89100
C388        C  0.12020868  0.16600921  0.84236358    -0.51200
C389        C  0.14284469  0.17782950  0.86015125     0.12000
C390        C  0.17481008  0.16918774  0.84908619     0.22900
C391        C  0.15273097  0.16737458  0.79653517    -0.51900
C392        C  0.17567927  0.17918249  0.81417778     0.12100
C393        C  0.15157710  0.12219846  0.83064839    -0.51400
C394        C  0.17445126  0.13399516  0.84823594     0.12700
H395        H  0.09650819  0.16963673  0.84737742     0.17200
H396        H  0.19341342  0.17870463  0.86353772     0.02900
H397        H  0.15027264  0.17195912  0.77155070     0.17500
H398        H  0.14856329  0.09782846  0.82731357     0.17300
C399        C  0.12880521  0.43551334  0.89934621     0.89100
C400        C  0.10928071  0.42260573  0.87291677    -0.51200
C401        C  0.08616115  0.40462620  0.88337002     0.12000
C402        C  0.08462370  0.40134945  0.91934110     0.22900
C403        C  0.10682948  0.45238683  0.92043818    -0.51900
C404        C  0.08354261  0.43469612  0.93085666     0.12100
C405        C  0.13931028  0.40750830  0.91858673    -0.51400
C406        C  0.11628827  0.38940887  0.92889211     0.12700
H407        H  0.11334391  0.42725748  0.84818836     0.17200
H408        H  0.06573198  0.38675575  0.92773869     0.02900
H409        H  0.10916392  0.47637637  0.92614704     0.17500
H410        H  0.16288472  0.40191175  0.92271155     0.17300
C411        C  0.12957614  0.34714809  0.68122374     0.89100
C412        C  0.11903686  0.32760804  0.65387644    -0.51200
C413        C  0.14202902  0.31689304  0.63624586     0.12000
C414        C  0.17376210  0.32648344  0.64787504     0.22900
C415        C  0.15172121  0.32697963  0.70011127    -0.51900
C416        C  0.17503167  0.31613483  0.68277958     0.12100
C417        C  0.14885461  0.37232900  0.66643660    -0.51400
C418        C  0.17198294  0.36165056  0.64898205     0.12700
H419        H  0.09544749  0.32349647  0.64829275     0.17200
H420        H  0.19264421  0.31788511  0.63354968     0.02900
H421        H  0.14956849  0.32232462  0.72511582     0.17500
H422        H  0.14479377  0.39653497  0.66974707     0.17300
C423        C  0.11994049  0.06723807  0.59972386     0.89100
C424        C  0.10001752  0.08030084  0.62524539    -0.51200
C425        C  0.07742406  0.09858972  0.61388739     0.12000
C426        C  0.07677198  0.10194735  0.57776351     0.22900
C427        C  0.09844447  0.05070012  0.57762932    -0.51900
C428        C  0.07574229  0.06864546  0.56607043     0.12100
C429        C  0.13138452  0.09501787  0.58100795    -0.51400
C430        C  0.10887077  0.11333469  0.56955089     0.12700
H431        H  0.10341989  0.07548395  0.65010665     0.17200
H432        H  0.05827955  0.11674103  0.56849923     0.02900
H433        H  0.10061592  0.02667599  0.57209338     0.17500
H434        H  0.15512669  0.10003948  0.57759388     0.17300
O435        O  0.10270973  0.29151102  0.97580775    -0.70400
O436        O  0.10008767  0.20927718  0.51685938    -0.71400
O437        O  0.10302120  0.27006142  0.53927290    -0.60000
O438        O  0.10323022  0.23023031  0.95334772    -0.68400
O439        O  0.15326750  0.22979778  0.95577804    -0.67900
O440        O  0.15307130  0.26811578  0.53923727    -0.59200
O441        O  0.15009206  0.20680096  0.51858766    -0.71700
O442        O  0.15277442  0.29159973  0.97661136    -0.70500
Cu443      Cu  0.10048908  0.25032985  0.49622737     1.04600
Cu444      Cu  0.15405524  0.24903971  0.49754137     1.04300
C445        C  0.12761183  0.30478334  0.97000764     0.95800
C446        C  0.12415489  0.19507399  0.52434278     0.95000
C447        C  0.12857028  0.27507687  0.55254113     0.87100
C448        C  0.12883779  0.22364676  0.94143988     0.93400
C449        C  0.47803213  0.47449736  0.52359100     0.89100
C450        C  0.50027391  0.45594319  0.50433662    -0.51200
C451        C  0.01759800  0.47334861  0.98468428     0.12000
C452        C  0.01098197  0.00805046  0.98609692     0.22900
C453        C  0.49741696  0.49814019  0.54061747    -0.51900
C454        C  0.01457462  0.01584759  0.52106755     0.12100
C455        C  0.45956049  0.49318198  0.49943195    -0.51400
C456        C  0.47673638  0.01088714  0.97982546     0.12700
H457        H  0.00229728  0.43123654  0.50623981     0.17200
H458        H  0.02507849  0.02237271  0.97020894     0.02900
H459        H  0.99756853  0.50065063  0.56592584     0.17500
H460        H  0.43506026  0.49323232  0.49864135     0.17300
C461        C  0.28033206  0.27367587  0.77519666     0.89100
C462        C  0.25960290  0.29148123  0.75230239    -0.51200
C463        C  0.24205445  0.27327916  0.73390407     0.12000
C464        C  0.24703477  0.23874538  0.74008590     0.22900
C465        C  0.25905428  0.25261016  0.79388699    -0.51900
C466        C  0.24149274  0.23437678  0.77558937     0.12100
C467        C  0.29868165  0.25230683  0.75464350    -0.51400
C468        C  0.28139120  0.23394265  0.73624803     0.12700
H469        H  0.25837866  0.31628546  0.75130055     0.17200
H470        H  0.23282743  0.22383966  0.72518929     0.02900
H471        H  0.25760503  0.25255100  0.81930818     0.17500
H472        H  0.32318563  0.25158522  0.75481202     0.17300
C473        C  0.11542740  0.14162503  0.55284044    -0.10700
C474        C  0.12117068  0.16561756  0.53966699    -0.12300
C475        C  0.05233713  0.05545864  0.54664209    -0.10700
C476        C  0.03466130  0.03910938  0.53311050    -0.12300
C477        C  0.13607653  0.30090780  0.60750139    -0.10700
C478        C  0.13070085  0.28888288  0.58280733    -0.12300
C479        C  0.21922506  0.28596700  0.71264196    -0.10700
C480        C  0.19955216  0.29870536  0.69733079    -0.12300
C481        C  0.12643565  0.33508350  0.95604641    -0.10700
C482        C  0.12193138  0.36009623  0.94428509    -0.12300
C483        C  0.04042791  0.45970623  0.96511967    -0.10700
C484        C  0.05958772  0.44744705  0.94960688    -0.12300
C485        C  0.13651976  0.19520036  0.88791723    -0.10700
C486        C  0.13108599  0.20863602  0.91175619    -0.12300
C487        C  0.19925849  0.19823592  0.80059544    -0.10700
C488        C  0.21864137  0.21420008  0.78882638    -0.12300
C489        C  0.10454677  0.35922570  0.69943638    -0.10700
C490        C  0.08244591  0.36714001  0.71331681    -0.12300
C491        C  0.06514475  0.39065759  0.86185694    -0.10700
C492        C  0.04897435  0.38237205  0.84071984    -0.12300
C493        C  0.45871691  0.37134445  0.67430335    -0.10700
C494        C  0.44345928  0.37874905  0.65188999    -0.12300
C495        C  0.44344924  0.44154949  0.56304566    -0.10700
C496        C  0.45944935  0.45566100  0.54504583    -0.12300
C497        C  0.42202510  0.37460899  0.80316966    -0.10700
C498        C  0.39868043  0.37048931  0.81690354    -0.12300
C499        C  0.29905299  0.29354513  0.79524835    -0.10700
C500        C  0.31286995  0.31076314  0.81208116    -0.12300
C501        C  0.38089489  0.33171008  0.55343484    -0.10700
C502        C  0.38561948  0.35477094  0.56761590    -0.12300
C503        C  0.37967351  0.29807213  0.92416130    -0.10700
C504        C  0.37190162  0.31376620  0.90192763    -0.12300
C505        C  0.37253855  0.20253185  0.58980210    -0.10700
C506        C  0.36340964  0.18616529  0.61081162    -0.12300
C507        C  0.30647395  0.19253931  0.69956743    -0.10700
C508        C  0.29478123  0.21154962  0.71584031    -0.12300
C509        C  0.19302888  0.38274540  0.63479066    -0.10700
C510        C  0.20767326  0.40518252  0.62829972    -0.12300
C511        C  0.32926340  0.45292332  0.63596908    -0.10700
C512        C  0.35297771  0.44110972  0.63050800    -0.12300
C513        C  0.16531585  0.03185127  0.61917948    -0.10700
C514        C  0.14409007  0.04754334  0.61186395    -0.12300
C515        C  0.28484352  0.07384493  0.63356390    -0.10700
C516        C  0.29844069  0.09708090  0.63882308    -0.12300
C517        C  0.29689379  0.42833476  0.87997622    -0.10700
C518        C  0.30992217  0.40481050  0.87511592    -0.12300
C519        C  0.15391208  0.45468076  0.88833531    -0.10700
C520        C  0.17602773  0.46958200  0.88212449    -0.12300
C521        C  0.21428490  0.09392064  0.86957296    -0.10700
C522        C  0.19720985  0.11433542  0.86218252    -0.12300
C523        C  0.39289216  0.14981140  0.94635153    -0.10700
C524        C  0.38539456  0.17173641  0.96098824    -0.12300
C525        C  0.36447272  0.06274342  0.88189679    -0.10700
C526        C  0.34137946  0.04978515  0.87513882    -0.12300
C527        C  0.44974795  0.05217760  0.94274585    -0.10700
C528        C  0.46317365  0.03279721  0.95796824    -0.12300
C529        C  0.41621869  0.12364998  0.70374358    -0.10700
C530        C  0.39149426  0.12865282  0.69280227    -0.12300
C531        C  0.10627951  0.13369306  0.79690994    -0.10700
C532        C  0.08352444  0.12601267  0.78345638    -0.12300
C533        C  0.05631425  0.11246053  0.63501519    -0.10700
C534        C  0.04104784  0.11963322  0.65703863    -0.12300
C535        C  0.46120668  0.11848210  0.82862357    -0.10700
C536        C  0.44850159  0.11469438  0.85332290    -0.12300
O537        O  0.45888358  0.59639782  0.22301787    -0.70400
O538        O  0.04252659  0.59742234  0.26312425    -0.71400
O539        O  0.48208544  0.59521463  0.28526001    -0.60000
O540        O  0.01945824  0.59619577  0.20070070    -0.68400
O541        O  0.01949124  0.64695057  0.19886521    -0.67900
O542        O  0.48079867  0.64596335  0.28504541    -0.59200
O543        O  0.04063605  0.64816025  0.26175297    -0.71700
O544        O  0.45945552  0.64717431  0.22228658    -0.70500
Cu545      Cu  0.00076615  0.59447984  0.24299621     1.04600
Cu546      Cu  0.50006593  0.64881432  0.24192664     1.04300
C547        C  0.44613310  0.62209044  0.21679747     0.95800
C548        C  0.05443257  0.62346631  0.26869465     0.95000
C549        C  0.47539623  0.62012823  0.29844490     0.87100
C550        C  0.02570082  0.62125593  0.18657330     0.93400
C551        C  0.40354178  0.62423890  0.42779846     0.89100
C552        C  0.37757536  0.60595508  0.41395509    -0.51200
C553        C  0.38663748  0.58215127  0.39633121     0.12000
C554        C  0.42117479  0.57855462  0.39431611     0.22900
C555        C  0.42275241  0.60093508  0.44629864    -0.52100
C556        C  0.43208729  0.57693504  0.42884373     0.12100
C557        C  0.42284235  0.63399968  0.39971202    -0.51400
C558        C  0.43202622  0.61009115  0.38209889     0.12700
H559        H  0.35397718  0.61138036  0.41770549     0.17200
H560        H  0.42850751  0.55902757  0.37996525     0.02900
H561        H  0.42826000  0.60307831  0.47104806     0.17500
H562        H  0.42815083  0.65765986  0.39386697     0.17300
O563        O  0.23763959  0.55183175  0.34771153    -0.70400
O564        O  0.27618682  0.96974672  0.35291151    -0.71400
O565        O  0.21596240  0.99079247  0.35271247    -0.60000
O566        O  0.29855360  0.53017476  0.34892463    -0.68400
O567        O  0.29862562  0.53235455  0.40091653    -0.67900
O568        O  0.21745321  0.99355636  0.40466236    -0.59200
O569        O  0.27738822  0.97151811  0.40494856    -0.71700
O570        O  0.23804549  0.55482620  0.39964054    -0.70500
Cu571      Cu  0.25705994  0.51066569  0.34871566     1.04600
Cu572      Cu  0.25794396  0.51327034  0.40436055     1.04300
C573        C  0.23115929  0.56597534  0.37261231     0.95800
C574        C  0.28276491  0.95769593  0.37947699     0.95000
C575        C  0.20415941  0.98559445  0.37952650     0.87100
C576        C  0.31165017  0.53680947  0.37472883     0.93400
O577        O  0.26248361  0.53110487  0.15692309    -0.70400
O578        O  0.22547570  0.94808105  0.15394383    -0.71400
O579        O  0.28512468  0.97081099  0.15946697    -0.60000
O580        O  0.20295520  0.50899292  0.15070059    -0.68400
O581        O  0.20767217  0.50881220  0.09885114    -0.67900
O582        O  0.28863901  0.97151063  0.10747928    -0.59200
O583        O  0.22946685  0.94769179  0.10207176    -0.71700
O584        O  0.26681340  0.53195423  0.10504952    -0.70500
Cu585      Cu  0.24378297  0.98963804  0.15710627     1.04600
Cu586      Cu  0.24825721  0.98993132  0.10153225     1.04300
C587        C  0.27057433  0.54452126  0.13160309     0.95800
C588        C  0.22172553  0.93476147  0.12787642     0.95000
C589        C  0.29978362  0.96566668  0.13449969     0.87100
C590        C  0.19290967  0.51547523  0.12323911     0.93400
C591        C  0.31721654  0.62268670  0.14913597     0.89100
C592        C  0.30075218  0.64518069  0.17010021    -0.51200
C593        C  0.31850769  0.66854622  0.18018457     0.12000
C594        C  0.35141041  0.66702900  0.16842989     0.22900
C595        C  0.33035809  0.64228298  0.12237455    -0.51900
C596        C  0.34843646  0.66546649  0.13250074     0.12100
C597        C  0.34457545  0.61173204  0.16830272    -0.51400
C598        C  0.36262690  0.63481722  0.17817727     0.12700
H599        H  0.27710531  0.64297280  0.17621366     0.17200
H600        H  0.36609359  0.68591148  0.17660524     0.02900
H601        H  0.32602726  0.63804284  0.09771657     0.17500
H602        H  0.34988315  0.58778633  0.17256353     0.17300
O603        O  0.40654505  0.71230184  0.48687745    -0.70400
O604        O  0.40451809  0.79039535  0.03143570    -0.71400
O605        O  0.40224717  0.72775313  0.05092160    -0.60000
O606        O  0.40587250  0.77452574  0.46714823    -0.68400
O607        O  0.35579698  0.77366776  0.46561796    -0.67900
O608        O  0.35228491  0.72850454  0.04682735    -0.59200
O609        O  0.35443234  0.79144582  0.02921412    -0.71700
O610        O  0.35651442  0.71104288  0.48333763    -0.70500
Cu611      Cu  0.40657281  0.75127072  0.00924104     1.04600
Cu612      Cu  0.35298759  0.75118393  0.00619846     1.04300
C613        C  0.38239480  0.69941177  0.47791082     0.95800
C614        C  0.37964522  0.80336618  0.03730300     0.95000
C615        C  0.37615911  0.72060540  0.06154155     0.87100
C616        C  0.38083644  0.78118789  0.45340957     0.93400
C617        C  0.32744670  0.87880206  0.36423509     0.89100
C618        C  0.35458264  0.88896398  0.34474660    -0.51200
C619        C  0.37132560  0.86531162  0.33421977     0.12000
C620        C  0.35935070  0.83344906  0.34402843     0.22900
C621        C  0.30954308  0.85718086  0.34322498    -0.51900
C622        C  0.32614205  0.83335476  0.33255395     0.12100
C623        C  0.34053765  0.85858025  0.39058027    -0.51400
C624        C  0.35743942  0.83488867  0.38009481     0.12700
H625        H  0.36032741  0.91273355  0.34010897     0.17200
H626        H  0.37305285  0.81412661  0.33544913     0.02900
H627        H  0.28590618  0.86049239  0.33720209     0.17500
H628        H  0.33700401  0.86275593  0.41531636     0.17300
C629        C  0.37842749  0.92441656  0.11795798     0.89100
C630        C  0.39896197  0.91019133  0.14304496    -0.51200
C631        C  0.42211686  0.89376365  0.13110559     0.12000
C632        C  0.42273540  0.89337961  0.09492896     0.22900
C633        C  0.39908605  0.94367642  0.09684933    -0.51900
C634        C  0.42232996  0.92745735  0.08464645     0.12100
C635        C  0.36803083  0.89783147  0.09780259    -0.51400
C636        C  0.39114307  0.88156866  0.08578888     0.12700
H637        H  0.39542470  0.91268447  0.16804860     0.17200
H638        H  0.44163233  0.88001344  0.08515026     0.02900
H639        H  0.39541431  0.96779017  0.09163984     0.17500
H640        H  0.34448832  0.89207859  0.09376817     0.17300
O641        O  0.46254267  0.90042392  0.27841090    -0.70400
O642        O  0.04292668  0.89684528  0.23373957    -0.71400
O643        O  0.48154975  0.89693394  0.21510854    -0.60000
O644        O  0.02438340  0.90261497  0.29683630    -0.68400
O645        O  0.02470167  0.85204903  0.30248839    -0.67900
O646        O  0.48054695  0.84622931  0.21873057    -0.59200
O647        O  0.04150703  0.84623517  0.23898865    -0.71700
O648        O  0.46325496  0.84974190  0.28261499    -0.70500
Cu649      Cu  0.00282014  0.90101678  0.25588937     1.04600
Cu650      Cu  0.00245502  0.84679423  0.26091484     1.04300
C651        C  0.45044755  0.87519099  0.28737708     0.95800
C652        C  0.05453639  0.87049722  0.22944058     0.95000
C653        C  0.47447138  0.87116948  0.20383861     0.87100
C654        C  0.03169351  0.87861436  0.31236874     0.93400
C655        C  0.13128262  0.64653821  0.31532639     0.89100
C656        C  0.12020870  0.66600927  0.34236355    -0.51200
C657        C  0.14284466  0.67782953  0.36015122     0.12000
C658        C  0.17481019  0.66918779  0.34908632     0.22900
C659        C  0.15273107  0.66737450  0.29653521    -0.51900
C660        C  0.17567929  0.67918240  0.31417778     0.12100
C661        C  0.15157708  0.62219859  0.33064847    -0.51400
C662        C  0.17445117  0.63399511  0.34823603     0.12700
H663        H  0.09650815  0.66963672  0.34737741     0.17200
H664        H  0.19341291  0.67870437  0.36353740     0.02900
H665        H  0.15027272  0.67195904  0.27155048     0.17500
H666        H  0.14856318  0.59782793  0.32731346     0.17300
C667        C  0.12880520  0.93551338  0.39934622     0.89100
C668        C  0.10928076  0.92260578  0.37291678    -0.51200
C669        C  0.08616115  0.90462624  0.38337000     0.12000
C670        C  0.08462377  0.90134956  0.41934105     0.22900
C671        C  0.10682947  0.95238702  0.42043819    -0.51900
C672        C  0.08354257  0.93469614  0.43085664     0.12100
C673        C  0.13931026  0.90750837  0.41858672    -0.51400
C674        C  0.11628826  0.88940890  0.42889211     0.12700
H675        H  0.11334398  0.92725752  0.34818838     0.17200
H676        H  0.06573166  0.88675553  0.42773881     0.02900
H677        H  0.10916381  0.97637585  0.42614688     0.17500
H678        H  0.16288483  0.90191176  0.42271153     0.17300
C679        C  0.12957614  0.84714808  0.18122372     0.89100
C680        C  0.11903678  0.82760798  0.15387644    -0.51200
C681        C  0.14202902  0.81689305  0.13624583     0.12000
C682        C  0.17376207  0.82648348  0.14787500     0.22900
C683        C  0.15172123  0.82697968  0.20011125    -0.51900
C684        C  0.17503171  0.81613489  0.18277955     0.12100
C685        C  0.14885456  0.87232904  0.16643657    -0.51400
C686        C  0.17198290  0.86165058  0.14898199     0.12700
H687        H  0.09544783  0.82349640  0.14829289     0.17200
H688        H  0.19264424  0.81788514  0.13354958     0.02900
H689        H  0.14956852  0.82232464  0.22511574     0.17500
H690        H  0.14479375  0.89653490  0.16974705     0.17300
C691        C  0.11994054  0.56723808  0.09972390     0.89100
C692        C  0.10001762  0.58030085  0.12524547    -0.51200
C693        C  0.07742414  0.59858975  0.11388743     0.12000
C694        C  0.07677199  0.60194737  0.07776353     0.22900
C695        C  0.09844450  0.55070014  0.07762944    -0.51900
C696        C  0.07574233  0.56864543  0.06607049     0.12100
C697        C  0.13138470  0.59501793  0.08100791    -0.51400
C698        C  0.10887076  0.61333470  0.06955087     0.12700
H699        H  0.10341994  0.57548393  0.15010642     0.17200
H700        H  0.05827965  0.61674087  0.06849932     0.02900
H701        H  0.10061596  0.52667583  0.07209351     0.17500
H702        H  0.15512602  0.60003939  0.07759396     0.17300
O703        O  0.10270971  0.79151101  0.47580774    -0.70400
O704        O  0.10008763  0.70927718  0.01685935    -0.71400
O705        O  0.10302125  0.77006148  0.03927285    -0.60000
O706        O  0.10323034  0.73023033  0.45334771    -0.68400
O707        O  0.15326762  0.72979780  0.45577807    -0.67900
O708        O  0.15307135  0.76811578  0.03923727    -0.59200
O709        O  0.15009203  0.70680096  0.01858764    -0.71700
O710        O  0.15277440  0.79159977  0.47661136    -0.70500
Cu711      Cu  0.10048912  0.75032986  0.99622737     1.04600
Cu712      Cu  0.15405528  0.74903972  0.99754135     1.04300
C713        C  0.12761183  0.80478339  0.47000766     0.95800
C714        C  0.12415484  0.69507400  0.02434276     0.95000
C715        C  0.12857031  0.77507688  0.05254111     0.87100
C716        C  0.12883791  0.72364680  0.44143987     0.93400
C717        C  0.47803218  0.97449738  0.02359098     0.89100
C718        C  0.50027390  0.95594324  0.00433656    -0.51200
C719        C  0.01759801  0.97334853  0.48468436     0.12000
C720        C  0.01098207  0.50805047  0.48609687     0.22900
C721        C  0.49741708  0.99814018  0.04061762    -0.51900
C722        C  0.01457457  0.51584767  0.02106752     0.12100
C723        C  0.45956056  0.99318208  0.99943199    -0.51400
C724        C  0.47673633  0.51088703  0.47982543     0.12700
H725        H  0.00229724  0.93123651  0.00623979     0.17200
H726        H  0.02507849  0.52237263  0.47020910     0.02900
H727        H  0.99756845  0.00065057  0.06592512     0.17500
H728        H  0.43506026  0.99323244  0.99864138     0.17300
C729        C  0.28033205  0.77367586  0.27519671     0.89100
C730        C  0.25960288  0.79148107  0.25230246    -0.51200
C731        C  0.24205439  0.77327918  0.23390415     0.12000
C732        C  0.24703475  0.73874539  0.24008598     0.22900
C733        C  0.25905429  0.75261010  0.29388702    -0.51900
C734        C  0.24149274  0.73437673  0.27558942     0.12100
C735        C  0.29868161  0.75230682  0.25464350    -0.51400
C736        C  0.28139114  0.73394265  0.23624803     0.12700
H737        H  0.25837860  0.81628614  0.25130054     0.17200
H738        H  0.23282720  0.72383950  0.22518922     0.02900
H739        H  0.25760499  0.75255093  0.31930845     0.17500
H740        H  0.32318561  0.75158520  0.25481203     0.17300
C741        C  0.11542736  0.64162506  0.05284042    -0.10700
C742        C  0.12117065  0.66561758  0.03966697    -0.12300
C743        C  0.05233721  0.55545864  0.04664206    -0.10700
C744        C  0.03466131  0.53910944  0.03311049    -0.12300
C745        C  0.13607648  0.80090780  0.10750137    -0.10700
C746        C  0.13070083  0.78888283  0.08280734    -0.12300
C747        C  0.21922501  0.78596703  0.21264207    -0.10700
C748        C  0.19955215  0.79870542  0.19733081    -0.12300
C749        C  0.12643562  0.83508358  0.45604651    -0.10700
C750        C  0.12193135  0.86009629  0.44428512    -0.12300
C751        C  0.04042785  0.95970613  0.46511969    -0.10700
C752        C  0.05958767  0.94744706  0.44960685    -0.12300
C753        C  0.13651972  0.69520032  0.38791726    -0.10700
C754        C  0.13108606  0.70863605  0.41175621    -0.12300
C755        C  0.19925844  0.69823593  0.30059545    -0.10700
C756        C  0.21864130  0.71420010  0.28882640    -0.12300
C757        C  0.10454678  0.85922564  0.19943641    -0.10700
C758        C  0.08244600  0.86714002  0.21331695    -0.12300
C759        C  0.06514473  0.89065767  0.36185691    -0.10700
C760        C  0.04897431  0.88237212  0.34071983    -0.12300
C761        C  0.45871697  0.87134446  0.17430332    -0.10700
C762        C  0.44345925  0.87874897  0.15189001    -0.12300
C763        C  0.44344927  0.94154949  0.06304565    -0.10700
C764        C  0.45944943  0.95566096  0.04504581    -0.12300
C765        C  0.42202513  0.87460901  0.30316970    -0.10700
C766        C  0.39868043  0.87048922  0.31690352    -0.12300
C767        C  0.29905302  0.79354513  0.29524834    -0.10700
C768        C  0.31286995  0.81076320  0.31208113    -0.12300
C769        C  0.38089483  0.83171007  0.05343483    -0.10700
C770        C  0.38561944  0.85477089  0.06761589    -0.12300
C771        C  0.37967354  0.79807211  0.42416133    -0.10700
C772        C  0.37190164  0.81376619  0.40192766    -0.12300
C773        C  0.37253854  0.70253178  0.08980210    -0.10700
C774        C  0.36340961  0.68616532  0.11081169    -0.12300
C775        C  0.30647401  0.69253935  0.19956746    -0.10700
C776        C  0.29478119  0.71154960  0.21584033    -0.12300
C777        C  0.19302887  0.88274537  0.13479059    -0.10700
C778        C  0.20767329  0.90518247  0.12829967    -0.12300
C779        C  0.32926344  0.95292333  0.13596908    -0.10700
C780        C  0.35297772  0.94110973  0.13050796    -0.12300
C781        C  0.16531587  0.53185115  0.11917947    -0.10700
C782        C  0.14409010  0.54754332  0.11186404    -0.12300
C783        C  0.28484350  0.57384492  0.13356395    -0.10700
C784        C  0.29844068  0.59708090  0.13882324    -0.12300
C785        C  0.29689375  0.92833470  0.37997620    -0.10700
C786        C  0.30992216  0.90481042  0.37511591    -0.12300
C787        C  0.15391207  0.95468085  0.38833530    -0.10700
C788        C  0.17602773  0.96958206  0.38212448    -0.12300
C789        C  0.21428502  0.59392069  0.36957291    -0.10700
C790        C  0.19720984  0.61433538  0.36218252    -0.12300
C791        C  0.39289215  0.64981132  0.44635151    -0.10700
C792        C  0.38539450  0.67173635  0.46098819    -0.12300
C793        C  0.36447273  0.56274340  0.38189680    -0.10700
C794        C  0.34137948  0.54978519  0.37513879    -0.12300
C795        C  0.44974790  0.55217748  0.44274580    -0.10700
C796        C  0.46317358  0.53279706  0.45796819    -0.12300
C797        C  0.41621869  0.62364994  0.20374356    -0.10700
C798        C  0.39149428  0.62865285  0.19280227    -0.12300
C799        C  0.10627955  0.63369312  0.29690995    -0.10700
C800        C  0.08352449  0.62601263  0.28345642    -0.12300
C801        C  0.05631430  0.61246050  0.13501523    -0.10700
C802        C  0.04104785  0.61963314  0.15703863    -0.12300
C803        C  0.46120672  0.61848217  0.32862359    -0.10700
C804        C  0.44850172  0.61469443  0.35332298    -0.12300
O805        O  0.45888364  0.59639784  0.72301782    -0.70400
O806        O  0.04252647  0.59742238  0.76312420    -0.71400
O807        O  0.48208547  0.59521455  0.78525998    -0.60000
O808        O  0.01945811  0.59619591  0.70070063    -0.68400
O809        O  0.01949107  0.64695072  0.69886511    -0.67900
O810        O  0.48079873  0.64596328  0.78504545    -0.59200
O811        O  0.04063600  0.64816029  0.76175284    -0.71700
O812        O  0.45945551  0.64717436  0.72228666    -0.70500
Cu813      Cu  0.00076604  0.59447983  0.74299614     1.04600
Cu814      Cu  0.50006597  0.64881440  0.74192662     1.04300
C815        C  0.44613313  0.62209046  0.71679750     0.95800
C816        C  0.05443249  0.62346635  0.76869456     0.95000
C817        C  0.47539625  0.62012815  0.79844491     0.87100
C818        C  0.02570073  0.62125607  0.68657324     0.93400
C819        C  0.40354176  0.62423890  0.92779846     0.89100
C820        C  0.37757551  0.60595501  0.91395512    -0.51200
C821        C  0.38663746  0.58215123  0.89633125     0.12000
C822        C  0.42117482  0.57855461  0.89431613     0.22900
C823        C  0.42275244  0.60093513  0.94629876    -0.52100
C824        C  0.43208729  0.57693507  0.92884374     0.12100
C825        C  0.42284234  0.63399990  0.89971193    -0.51400
C826        C  0.43202616  0.61009112  0.88209887     0.12700
H827        H  0.35397650  0.61138045  0.91770563     0.17200
H828        H  0.42850752  0.55902761  0.87996535     0.02900
H829        H  0.42825995  0.60307834  0.97104752     0.17500
H830        H  0.42815052  0.65765883  0.89386714     0.17300
O831        O  0.23763948  0.55183171  0.84771156    -0.70400
O832        O  0.27618671  0.96974668  0.85291153    -0.71400
O833        O  0.21596243  0.99079240  0.85271250    -0.60000
O834        O  0.29855358  0.53017476  0.84892466    -0.68400
O835        O  0.29862561  0.53235454  0.90091655    -0.67900
O836        O  0.21745308  0.99355653  0.90466236    -0.59200
O837        O  0.27738820  0.97151824  0.90494855    -0.71700
O838        O  0.23804552  0.55482621  0.89964057    -0.70500
Cu839      Cu  0.25705992  0.51066570  0.84871568     1.04600
Cu840      Cu  0.25794396  0.51327041  0.90436057     1.04300
C841        C  0.23115919  0.56597529  0.87261235     0.95800
C842        C  0.28276487  0.95769599  0.87947702     0.95000
C843        C  0.20415935  0.98559450  0.87952651     0.87100
C844        C  0.31165018  0.53680941  0.87472887     0.93400
O845        O  0.26248365  0.53110484  0.65692310    -0.70400
O846        O  0.22547568  0.94808110  0.65394371    -0.71400
O847        O  0.28512466  0.97081104  0.65946693    -0.60000
O848        O  0.20295513  0.50899295  0.65070063    -0.68400
O849        O  0.20767210  0.50881227  0.59885117    -0.67900
O850        O  0.28863892  0.97151064  0.60747924    -0.59200
O851        O  0.22946671  0.94769177  0.60207163    -0.71700
O852        O  0.26681329  0.53195427  0.60504952    -0.70500
Cu853      Cu  0.24378292  0.98963805  0.65710626     1.04600
Cu854      Cu  0.24825708  0.98993129  0.60153224     1.04300
C855        C  0.27057435  0.54452125  0.63160307     0.95800
C856        C  0.22172543  0.93476150  0.62787634     0.95000
C857        C  0.29978358  0.96566669  0.63449965     0.87100
C858        C  0.19290963  0.51547529  0.62323914     0.93400
C859        C  0.31721655  0.62268675  0.64913583     0.89100
C860        C  0.30075199  0.64518063  0.67010018    -0.51200
C861        C  0.31850767  0.66854620  0.68018451     0.12000
C862        C  0.35141038  0.66702895  0.66842987     0.22900
C863        C  0.33035810  0.64228304  0.62237452    -0.51900
C864        C  0.34843652  0.66546648  0.63250067     0.12100
C865        C  0.34457545  0.61173191  0.66830260    -0.51400
C866        C  0.36262689  0.63481718  0.67817723     0.12700
H867        H  0.27710609  0.64297276  0.67621343     0.17200
H868        H  0.36609362  0.68591150  0.67660528     0.02900
H869        H  0.32602720  0.63804294  0.59771619     0.17500
H870        H  0.34988299  0.58778675  0.67256322     0.17300
O871        O  0.40654502  0.71230196  0.98687751    -0.70400
O872        O  0.40451801  0.79039530  0.53143556    -0.71400
O873        O  0.40224718  0.72775306  0.55092153    -0.60000
O874        O  0.40587246  0.77452585  0.96714823    -0.68400
O875        O  0.35579695  0.77366785  0.96561801    -0.67900
O876        O  0.35228492  0.72850468  0.54682740    -0.59200
O877        O  0.35443227  0.79144597  0.52921398    -0.71700
O878        O  0.35651440  0.71104292  0.98333759    -0.70500
Cu879      Cu  0.40657283  0.75127063  0.50924097     1.04600
Cu880      Cu  0.35298761  0.75118398  0.50619844     1.04300
C881        C  0.38239482  0.69941185  0.97791084     0.95800
C882        C  0.37964520  0.80336626  0.53730289     0.95000
C883        C  0.37615913  0.72060544  0.56154155     0.87100
C884        C  0.38083641  0.78118801  0.95340961     0.93400
C885        C  0.32744667  0.87880205  0.86423512     0.89100
C886        C  0.35458261  0.88896412  0.84474660    -0.51200
C887        C  0.37132553  0.86531165  0.83421977     0.12000
C888        C  0.35935074  0.83344902  0.84402839     0.22900
C889        C  0.30954307  0.85718084  0.84322501    -0.51900
C890        C  0.32614205  0.83335475  0.83255396     0.12100
C891        C  0.34053760  0.85858024  0.89058030    -0.51400
C892        C  0.35743935  0.83488866  0.88009479     0.12700
H893        H  0.36032717  0.91273296  0.84010915     0.17200
H894        H  0.37305268  0.81412689  0.83544922     0.02900
H895        H  0.28590620  0.86049233  0.83720212     0.17500
H896        H  0.33700397  0.86275590  0.91531622     0.17300
C897        C  0.37842749  0.92441655  0.61795799     0.89100
C898        C  0.39896190  0.91019130  0.64304509    -0.51200
C899        C  0.42211685  0.89376365  0.63110554     0.12000
C900        C  0.42273536  0.89337961  0.59492894     0.22900
C901        C  0.39908603  0.94367657  0.59684932    -0.51900
C902        C  0.42232993  0.92745731  0.58464641     0.12100
C903        C  0.36803066  0.89783148  0.59780255    -0.51400
C904        C  0.39114306  0.88156867  0.58578886     0.12700
H905        H  0.39542477  0.91268433  0.66804794     0.17200
H906        H  0.44163225  0.88001346  0.58515027     0.02900
H907        H  0.39541449  0.96778952  0.59164010     0.17500
H908        H  0.34448891  0.89207881  0.59376822     0.17300
O909        O  0.46254270  0.90042394  0.77841094    -0.70400
O910        O  0.04292661  0.89684526  0.73373947    -0.71400
O911        O  0.48154978  0.89693389  0.71510852    -0.60000
O912        O  0.02438332  0.90261493  0.79683636    -0.68400
O913        O  0.02470168  0.85204899  0.80248839    -0.67900
O914        O  0.48054700  0.84622927  0.71873057    -0.59200
O915        O  0.04150701  0.84623517  0.73898870    -0.71700
O916        O  0.46325499  0.84974193  0.78261497    -0.70500
Cu917      Cu  0.00282005  0.90101683  0.75588937     1.04600
Cu918      Cu  0.00245500  0.84679427  0.76091486     1.04300
C919        C  0.45044755  0.87519099  0.78737705     0.95800
C920        C  0.05453632  0.87049722  0.72944051     0.95000
C921        C  0.47447141  0.87116942  0.70383860     0.87100
C922        C  0.03169351  0.87861431  0.81236876     0.93400
C923        C  0.13128262  0.64653817  0.81532641     0.89100
C924        C  0.12020869  0.66600920  0.84236356    -0.51200
C925        C  0.14284466  0.67782954  0.86015122     0.12000
C926        C  0.17481007  0.66918775  0.84908619     0.22900
C927        C  0.15273098  0.66737455  0.79653516    -0.51900
C928        C  0.17567924  0.67918249  0.81417779     0.12100
C929        C  0.15157711  0.62219844  0.83064840    -0.51400
C930        C  0.17445126  0.63399516  0.84823596     0.12700
H931        H  0.09650806  0.66963670  0.84737744     0.17200
H932        H  0.19341338  0.67870466  0.86353771     0.02900
H933        H  0.15027263  0.67195911  0.77155072     0.17500
H934        H  0.14856332  0.59782846  0.82731357     0.17300
C935        C  0.12880524  0.93551333  0.89934621     0.89100
C936        C  0.10928075  0.92260572  0.87291676    -0.51200
C937        C  0.08616115  0.90462620  0.88337002     0.12000
C938        C  0.08462376  0.90134952  0.91934108     0.22900
C939        C  0.10682951  0.95238685  0.92043818    -0.51900
C940        C  0.08354262  0.93469614  0.93085667     0.12100
C941        C  0.13931030  0.90750830  0.91858672    -0.51400
C942        C  0.11628827  0.88940889  0.92889211     0.12700
H943        H  0.11334395  0.92725744  0.84818835     0.17200
H944        H  0.06573174  0.88675563  0.92773881     0.02900
H945        H  0.10916396  0.97637636  0.92614704     0.17500
H946        H  0.16288475  0.90191172  0.92271154     0.17300
C947        C  0.12957616  0.84714808  0.68122375     0.89100
C948        C  0.11903688  0.82760802  0.65387645    -0.51200
C949        C  0.14202904  0.81689305  0.63624586     0.12000
C950        C  0.17376212  0.82648342  0.64787504     0.22900
C951        C  0.15172123  0.82697961  0.70011128    -0.51900
C952        C  0.17503169  0.81613481  0.68277958     0.12100
C953        C  0.14885465  0.87232885  0.66643659    -0.51400
C954        C  0.17198295  0.86165055  0.64898206     0.12700
H955        H  0.09544751  0.82349648  0.64829275     0.17200
H956        H  0.19264423  0.81788509  0.63354968     0.02900
H957        H  0.14956851  0.82232460  0.72511582     0.17500
H958        H  0.14479369  0.89653553  0.66974715     0.17300
C959        C  0.11994052  0.56723804  0.59972386     0.89100
C960        C  0.10001755  0.58030081  0.62524539    -0.51200
C961        C  0.07742408  0.59858969  0.61388739     0.12000
C962        C  0.07677200  0.60194732  0.57776351     0.22900
C963        C  0.09844450  0.55070010  0.57762932    -0.51900
C964        C  0.07574232  0.56864544  0.56607043     0.12100
C965        C  0.13138452  0.59501785  0.58100796    -0.51400
C966        C  0.10887079  0.61333467  0.56955089     0.12700
H967        H  0.10341991  0.57548393  0.65010665     0.17200
H968        H  0.05827957  0.61674101  0.56849923     0.02900
H969        H  0.10061595  0.52667597  0.57209338     0.17500
H970        H  0.15512683  0.60003949  0.57759390     0.17300
O971        O  0.10270977  0.79151102  0.97580773    -0.70400
O972        O  0.10008766  0.70927716  0.51685938    -0.71400
O973        O  0.10302123  0.77006140  0.53927290    -0.60000
O974        O  0.10323024  0.73023027  0.95334774    -0.68400
O975        O  0.15326753  0.72979790  0.95577801    -0.67900
O976        O  0.15307132  0.76811575  0.53923728    -0.59200
O977        O  0.15009205  0.70680094  0.51858766    -0.71700
O978        O  0.15277445  0.79159982  0.97661140    -0.70500
Cu979      Cu  0.10048910  0.75032983  0.49622737     1.04600
Cu980      Cu  0.15405526  0.74903969  0.49754136     1.04300
C981        C  0.12761186  0.80478338  0.97000765     0.95800
C982        C  0.12415485  0.69507397  0.52434278     0.95000
C983        C  0.12857030  0.77507685  0.55254114     0.87100
C984        C  0.12883782  0.72364679  0.94143988     0.93400
C985        C  0.47803214  0.97449737  0.52359100     0.89100
C986        C  0.50027389  0.95594314  0.50433664    -0.51200
C987        C  0.01759801  0.97334858  0.98468434     0.12000
C988        C  0.01098195  0.50805048  0.98609689     0.22900
C989        C  0.49741700  0.99814016  0.54061747    -0.51900
C990        C  0.01457458  0.51584765  0.52106755     0.12100
C991        C  0.45956052  0.99318199  0.49943196    -0.51400
C992        C  0.47673639  0.51088714  0.97982546     0.12700
H993        H  0.00229711  0.93123656  0.50623981     0.17200
H994        H  0.02507848  0.52237275  0.97020888     0.02900
H995        H  0.99756853  0.00065064  0.56592589     0.17500
H996        H  0.43506024  0.99323236  0.49864133     0.17300
C997        C  0.28033207  0.77367588  0.77519666     0.89100
C998        C  0.25960289  0.79148121  0.75230239    -0.51200
C999        C  0.24205441  0.77327913  0.73390410     0.12000
C1000       C  0.24703477  0.73874535  0.74008592     0.22900
C1001       C  0.25905430  0.75261014  0.79388700    -0.51900
C1002       C  0.24149274  0.73437675  0.77558937     0.12100
C1003       C  0.29868166  0.75230683  0.75464350    -0.51400
C1004       C  0.28139121  0.73394264  0.73624803     0.12700
H1005       H  0.25837866  0.81628540  0.75130050     0.17200
H1006       H  0.23282741  0.72383961  0.72518928     0.02900
H1007       H  0.25760503  0.75255100  0.81930818     0.17500
H1008       H  0.32318563  0.75158522  0.75481202     0.17300
C1009       C  0.11542741  0.64162501  0.55284044    -0.10700
C1010       C  0.12117067  0.66561754  0.53966698    -0.12300
C1011       C  0.05233717  0.55545862  0.54664209    -0.10700
C1012       C  0.03466131  0.53910940  0.53311051    -0.12300
C1013       C  0.13607655  0.80090789  0.60750135    -0.10700
C1014       C  0.13070088  0.78888290  0.58280731    -0.12300
C1015       C  0.21922506  0.78596696  0.71264197    -0.10700
C1016       C  0.19955217  0.79870535  0.69733078    -0.12300
C1017       C  0.12643564  0.83508357  0.95604644    -0.10700
C1018       C  0.12193138  0.86009626  0.94428510    -0.12300
C1019       C  0.04042785  0.95970619  0.96511966    -0.10700
C1020       C  0.05958770  0.94744705  0.94960688    -0.12300
C1021       C  0.13651974  0.69520037  0.88791723    -0.10700
C1022       C  0.13108602  0.70863601  0.91175622    -0.12300
C1023       C  0.19925836  0.69823606  0.80059545    -0.10700
C1024       C  0.21864125  0.71420016  0.78882637    -0.12300
C1025       C  0.10454678  0.85922568  0.69943638    -0.10700
C1026       C  0.08244592  0.86713999  0.71331682    -0.12300
C1027       C  0.06514477  0.89065757  0.86185693    -0.10700
C1028       C  0.04897436  0.88237204  0.84071982    -0.12300
C1029       C  0.45871697  0.87134442  0.67430328    -0.10700
C1030       C  0.44345931  0.87874902  0.65188995    -0.12300
C1031       C  0.44344926  0.94154947  0.56304566    -0.10700
C1032       C  0.45944936  0.95566100  0.54504585    -0.12300
C1033       C  0.42202507  0.87460898  0.80316965    -0.10700
C1034       C  0.39868037  0.87048929  0.81690349    -0.12300
C1035       C  0.29905297  0.79354522  0.79524831    -0.10700
C1036       C  0.31286995  0.81076324  0.81208110    -0.12300
C1037       C  0.38089491  0.83171010  0.55343473    -0.10700
C1038       C  0.38561947  0.85477095  0.56761585    -0.12300
C1039       C  0.37967347  0.79807222  0.92416134    -0.10700
C1040       C  0.37190161  0.81376621  0.90192763    -0.12300
C1041       C  0.37253857  0.70253183  0.58980209    -0.10700
C1042       C  0.36340968  0.68616529  0.61081164    -0.12300
C1043       C  0.30647396  0.69253928  0.69956744    -0.10700
C1044       C  0.29478125  0.71154960  0.71584031    -0.12300
C1045       C  0.19302886  0.88274538  0.63479065    -0.10700
C1046       C  0.20767317  0.90518254  0.62829969    -0.12300
C1047       C  0.32926335  0.95292327  0.63596905    -0.10700
C1048       C  0.35297770  0.94110969  0.63050800    -0.12300
C1049       C  0.16531587  0.53185125  0.61917948    -0.10700
C1050       C  0.14409009  0.54754332  0.61186395    -0.12300
C1051       C  0.28484354  0.57384493  0.63356389    -0.10700
C1052       C  0.29844068  0.59708095  0.63882305    -0.12300
C1053       C  0.29689381  0.92833479  0.87997625    -0.10700
C1054       C  0.30992219  0.90481052  0.87511593    -0.12300
C1055       C  0.15391212  0.95468074  0.88833531    -0.10700
C1056       C  0.17602774  0.96958201  0.88212450    -0.12300
C1057       C  0.21428492  0.59392063  0.86957297    -0.10700
C1058       C  0.19720987  0.61433541  0.86218252    -0.12300
C1059       C  0.39289218  0.64981138  0.94635153    -0.10700
C1060       C  0.38539457  0.67173639  0.96098823    -0.12300
C1061       C  0.36447275  0.56274339  0.88189679    -0.10700
C1062       C  0.34137949  0.54978512  0.87513882    -0.12300
C1063       C  0.44974797  0.55217759  0.94274584    -0.10700
C1064       C  0.46317367  0.53279720  0.95796823    -0.12300
C1065       C  0.41621871  0.62364995  0.70374358    -0.10700
C1066       C  0.39149428  0.62865279  0.69280226    -0.12300
C1067       C  0.10627953  0.63369303  0.79690994    -0.10700
C1068       C  0.08352446  0.62601264  0.78345638    -0.12300
C1069       C  0.05631427  0.61246051  0.63501520    -0.10700
C1070       C  0.04104787  0.61963323  0.65703863    -0.12300
C1071       C  0.46120671  0.61848212  0.82862360    -0.10700
C1072       C  0.44850165  0.61469447  0.85332297    -0.12300
O1073       O  0.95888363  0.09639785  0.22301787    -0.70400
O1074       O  0.54252652  0.09742237  0.26312426    -0.71400
O1075       O  0.98208551  0.09521466  0.28526002    -0.60000
O1076       O  0.51945814  0.09619580  0.20070070    -0.68400
O1077       O  0.51949113  0.14695060  0.19886521    -0.67900
O1078       O  0.98079861  0.14596337  0.28504539    -0.59200
O1079       O  0.54063598  0.14816027  0.26175298    -0.71700
O1080       O  0.95945550  0.14717435  0.22228660    -0.70500
Cu1081     Cu  0.50076609  0.09447987  0.24299621     1.04600
Cu1082     Cu  0.00006594  0.14881435  0.24192664     1.04300
C1083       C  0.94613311  0.12209047  0.21679748     0.95800
C1084       C  0.55443252  0.12346633  0.26869466     0.95000
C1085       C  0.97539622  0.12012826  0.29844491     0.87100
C1086       C  0.52570071  0.12125595  0.18657330     0.93400
C1087       C  0.90354178  0.12423892  0.42779847     0.89100
C1088       C  0.87757551  0.10595503  0.41395508    -0.51200
C1089       C  0.88663747  0.08215127  0.39633121     0.12000
C1090       C  0.92117482  0.07855461  0.39431609     0.22900
C1091       C  0.92275245  0.10093511  0.44629864    -0.52100
C1092       C  0.93208729  0.07693505  0.42884374     0.12100
C1093       C  0.92284229  0.13399971  0.39971199    -0.51400
C1094       C  0.93202618  0.11009119  0.38209887     0.12700
H1095       H  0.85397653  0.11138051  0.41770559     0.17200
H1096       H  0.92850753  0.05902771  0.37996534     0.02900
H1097       H  0.92826008  0.10307837  0.47104800     0.17500
H1098       H  0.92815071  0.15765990  0.39386693     0.17300
O1099       O  0.73763948  0.05183176  0.34771154    -0.70400
O1100       O  0.77618672  0.46974670  0.35291151    -0.71400
O1101       O  0.71596240  0.49079246  0.35271247    -0.60000
O1102       O  0.79855351  0.03017480  0.34892465    -0.68400
O1103       O  0.79862558  0.03235460  0.40091656    -0.67900
O1104       O  0.71745315  0.49355639  0.40466234    -0.59200
O1105       O  0.77738825  0.47151815  0.40494853    -0.71700
O1106       O  0.73804542  0.05482621  0.39964057    -0.70500
Cu1107     Cu  0.75705988  0.01066570  0.34871568     1.04600
Cu1108     Cu  0.75794397  0.01327035  0.40436066     1.04300
C1109       C  0.73115919  0.06597534  0.37261234     0.95800
C1110       C  0.78276489  0.45769595  0.37947698     0.95000
C1111       C  0.70415937  0.48559445  0.37952648     0.87100
C1112       C  0.81165011  0.03680952  0.37472885     0.93400
O1113       O  0.76248356  0.03110489  0.15692309    -0.70400
O1114       O  0.72547559  0.44808108  0.15394383    -0.71400
O1115       O  0.78512460  0.47081097  0.15946697    -0.60000
O1116       O  0.70295516  0.00899291  0.15070059    -0.68400
O1117       O  0.70767214  0.00881225  0.09885114    -0.67900
O1118       O  0.78863892  0.47151056  0.10747928    -0.59200
O1119       O  0.72946675  0.44769177  0.10207176    -0.71700
O1120       O  0.76681334  0.03195430  0.10504952    -0.70500
Cu1121     Cu  0.74378289  0.48963804  0.15710627     1.04600
Cu1122     Cu  0.74825713  0.48993124  0.10153225     1.04300
C1123       C  0.77057434  0.04452129  0.13160310     0.95800
C1124       C  0.72172542  0.43476150  0.12787642     0.95000
C1125       C  0.79978354  0.46566664  0.13449969     0.87100
C1126       C  0.69290966  0.01547526  0.12323911     0.93400
C1127       C  0.81721655  0.12268673  0.14913592     0.89100
C1128       C  0.80075199  0.14518069  0.17010019    -0.51200
C1129       C  0.81850766  0.16854627  0.18018450     0.12000
C1130       C  0.85141035  0.16702904  0.16842987     0.22900
C1131       C  0.83035806  0.14228303  0.12237452    -0.51900
C1132       C  0.84843643  0.16546653  0.13250071     0.12100
C1133       C  0.84457542  0.11173210  0.16830269    -0.51400
C1134       C  0.86262687  0.13481725  0.17817727     0.12700
H1135       H  0.77710605  0.14297283  0.17621342     0.17200
H1136       H  0.86609354  0.18591154  0.17660523     0.02900
H1137       H  0.82602721  0.13804289  0.09771642     0.17500
H1138       H  0.84988315  0.08778622  0.17256352     0.17300
O1139       O  0.90654494  0.21230189  0.48687747    -0.70400
O1140       O  0.90451806  0.29039537  0.03143552    -0.71400
O1141       O  0.90224722  0.22775301  0.05092149    -0.60000
O1142       O  0.90587248  0.27452576  0.46714823    -0.68400
O1143       O  0.85579697  0.27366779  0.46561798    -0.67900
O1144       O  0.85228496  0.22850454  0.04682737    -0.59200
O1145       O  0.85443231  0.29144585  0.02921413    -0.71700
O1146       O  0.85651432  0.21104288  0.48333761    -0.70500
Cu1147     Cu  0.90657286  0.25127071  0.00924093     1.04600
Cu1148     Cu  0.85298764  0.25118393  0.00619846     1.04300
C1149       C  0.88239472  0.19941180  0.47791082     0.95800
C1150       C  0.87964523  0.30336620  0.03730294     0.95000
C1151       C  0.87615918  0.22060532  0.06154152     0.87100
C1152       C  0.88083644  0.28118791  0.45340958     0.93400
C1153       C  0.82744664  0.37880206  0.36423509     0.89100
C1154       C  0.85458258  0.38896394  0.34474661    -0.51200
C1155       C  0.87132553  0.36531164  0.33421977     0.12000
C1156       C  0.85935073  0.33344897  0.34402840     0.22900
C1157       C  0.80954308  0.35718086  0.34322497    -0.51900
C1158       C  0.82614199  0.33335477  0.33255396     0.12100
C1159       C  0.84053758  0.35858022  0.39058026    -0.51400
C1160       C  0.85743936  0.33488868  0.38009482     0.12700
H1161       H  0.86032735  0.41273370  0.34010896     0.17200
H1162       H  0.87305254  0.31412698  0.33544933     0.02900
H1163       H  0.78590601  0.36049244  0.33720200     0.17500
H1164       H  0.83700393  0.36275593  0.41531636     0.17300
C1165       C  0.87842745  0.42441658  0.11795797     0.89100
C1166       C  0.89896193  0.41019132  0.14304495    -0.51200
C1167       C  0.92211682  0.39376365  0.13110558     0.12000
C1168       C  0.92273546  0.39337955  0.09492893     0.22900
C1169       C  0.89908608  0.44367641  0.09684934    -0.51900
C1170       C  0.92232995  0.42745735  0.08464646     0.12100
C1171       C  0.86803081  0.39783146  0.09780255    -0.51400
C1172       C  0.89114307  0.38156867  0.08578888     0.12700
H1173       H  0.89542465  0.41268450  0.16804852     0.17200
H1174       H  0.94163202  0.38001363  0.08515045     0.02900
H1175       H  0.89541436  0.46779025  0.09163989     0.17500
H1176       H  0.84448840  0.39207860  0.09376813     0.17300
O1177       O  0.96254265  0.40042394  0.27841089    -0.70400
O1178       O  0.54292658  0.39684529  0.23373956    -0.71400
O1179       O  0.98154983  0.39693393  0.21510851    -0.60000
O1180       O  0.52438332  0.40261499  0.29683632    -0.68400
O1181       O  0.52470173  0.35204905  0.30248836    -0.67900
O1182       O  0.98054703  0.34622931  0.21873054    -0.59200
O1183       O  0.54150702  0.34623519  0.23898867    -0.71700
O1184       O  0.96325500  0.34974194  0.28261500    -0.70500
Cu1185     Cu  0.50282008  0.40101679  0.25588937     1.04600
Cu1186     Cu  0.50245501  0.34679424  0.26091485     1.04300
C1187       C  0.95044756  0.37519101  0.28737708     0.95800
C1188       C  0.55453633  0.37049724  0.22944057     0.95000
C1189       C  0.97447144  0.37116945  0.20383859     0.87100
C1190       C  0.53169354  0.37861438  0.31236871     0.93400
C1191       C  0.63128262  0.14653822  0.31532640     0.89100
C1192       C  0.62020872  0.16600927  0.34236355    -0.51200
C1193       C  0.64284467  0.17782955  0.36015123     0.12000
C1194       C  0.67481013  0.16918779  0.34908627     0.22900
C1195       C  0.65273103  0.16737452  0.29653519    -0.51900
C1196       C  0.67567927  0.17918242  0.31417778     0.12100
C1197       C  0.65157711  0.12219861  0.33064844    -0.51400
C1198       C  0.67445119  0.13399516  0.34823602     0.12700
H1199       H  0.59650799  0.16963677  0.34737745     0.17200
H1200       H  0.69341315  0.17870455  0.36353760     0.02900
H1201       H  0.65027267  0.17195907  0.27155057     0.17500
H1202       H  0.64856325  0.09782797  0.32731344     0.17300
C1203       C  0.62880521  0.43551339  0.39934618     0.89100
C1204       C  0.60928072  0.42260569  0.37291691    -0.51200
C1205       C  0.58616116  0.40462623  0.38337001     0.12000
C1206       C  0.58462373  0.40134948  0.41934113     0.22900
C1207       C  0.60682949  0.45238700  0.42043820    -0.51900
C1208       C  0.58354262  0.43469614  0.43085666     0.12100
C1209       C  0.63931041  0.40750835  0.41858673    -0.51400
C1210       C  0.61628831  0.38940890  0.42889209     0.12700
H1211       H  0.61334408  0.42725753  0.34818770     0.17200
H1212       H  0.56573201  0.38675578  0.42773872     0.02900
H1213       H  0.60916387  0.47637587  0.42614691     0.17500
H1214       H  0.66288430  0.40191197  0.42271138     0.17300
C1215       C  0.62957614  0.34714810  0.18122372     0.89100
C1216       C  0.61903686  0.32760797  0.15387641    -0.51200
C1217       C  0.64202908  0.31689307  0.13624582     0.12000
C1218       C  0.67376221  0.32648343  0.14787496     0.22900
C1219       C  0.65172127  0.32697967  0.20011125    -0.51900
C1220       C  0.67503173  0.31613490  0.18277957     0.12100
C1221       C  0.64885465  0.37232884  0.16643654    -0.51400
C1222       C  0.67198295  0.36165058  0.14898204     0.12700
H1223       H  0.59544782  0.32349638  0.14829282     0.17200
H1224       H  0.69264405  0.31788527  0.13354983     0.02900
H1225       H  0.64956856  0.32232469  0.22511581     0.17500
H1226       H  0.64479366  0.39653574  0.16974715     0.17300
C1227       C  0.61994056  0.06723812  0.09972390     0.89100
C1228       C  0.60001757  0.08030086  0.12524546    -0.51200
C1229       C  0.57742409  0.09858976  0.11388742     0.12000
C1230       C  0.57677203  0.10194734  0.07776356     0.22900
C1231       C  0.59844452  0.05070016  0.07762943    -0.51900
C1232       C  0.57574232  0.06864546  0.06607050     0.12100
C1233       C  0.63138456  0.09501794  0.08100794    -0.51400
C1234       C  0.60887077  0.11333473  0.06955088     0.12700
H1235       H  0.60341988  0.07548393  0.15010651     0.17200
H1236       H  0.55827943  0.11674110  0.06849917     0.02900
H1237       H  0.60061601  0.02667592  0.07209351     0.17500
H1238       H  0.65512674  0.10003960  0.07759385     0.17300
O1239       O  0.60270972  0.29151103  0.47580774    -0.70400
O1240       O  0.60008761  0.20927719  0.01685935    -0.71400
O1241       O  0.60302123  0.27006146  0.03927286    -0.60000
O1242       O  0.60323028  0.23023031  0.45334770    -0.68400
O1243       O  0.65326756  0.22979780  0.45577810    -0.67900
O1244       O  0.65307133  0.26811578  0.03923727    -0.59200
O1245       O  0.65009201  0.20680100  0.01858766    -0.71700
O1246       O  0.65277442  0.29159977  0.47661137    -0.70500
Cu1247     Cu  0.60048907  0.25032987  0.99622737     1.04600
Cu1248     Cu  0.65405523  0.24903968  0.99754136     1.04300
C1249       C  0.62761184  0.30478338  0.47000767     0.95800
C1250       C  0.62415482  0.19507402  0.02434276     0.95000
C1251       C  0.62857030  0.27507684  0.05254113     0.87100
C1252       C  0.62883786  0.22364676  0.44143989     0.93400
C1253       C  0.97803213  0.47449740  0.02359096     0.89100
C1254       C  0.00027390  0.45594325  0.00433657    -0.51200
C1255       C  0.51759801  0.47334856  0.48468434     0.12000
C1256       C  0.51098199  0.00805036  0.48609692     0.22900
C1257       C  0.99741699  0.49814022  0.04061762    -0.51900
C1258       C  0.51457466  0.01584762  0.02106752     0.12100
C1259       C  0.95956049  0.49318207  0.99943199    -0.51400
C1260       C  0.97673640  0.01088708  0.47982542     0.12700
H1261       H  0.50229723  0.43123649  0.00623978     0.17200
H1262       H  0.52507865  0.02237272  0.47020885     0.02900
H1263       H  0.49756854  0.50065061  0.06592506     0.17500
H1264       H  0.93506020  0.49323246  0.99864138     0.17300
C1265       C  0.78033206  0.27367586  0.27519672     0.89100
C1266       C  0.75960292  0.29148107  0.25230245    -0.51200
C1267       C  0.74205440  0.27327921  0.23390417     0.12000
C1268       C  0.74703470  0.23874538  0.24008596     0.22900
C1269       C  0.75905424  0.25261011  0.29388703    -0.51900
C1270       C  0.74149268  0.23437677  0.27558941     0.12100
C1271       C  0.79868161  0.25230682  0.25464350    -0.51400
C1272       C  0.78139114  0.23394266  0.23624804     0.12700
H1273       H  0.75837869  0.31628616  0.25130052     0.17200
H1274       H  0.73282732  0.22383971  0.22518938     0.02900
H1275       H  0.75760492  0.25255094  0.31930836     0.17500
H1276       H  0.82318566  0.25158521  0.25481203     0.17300
C1277       C  0.61542734  0.14162508  0.05284042    -0.10700
C1278       C  0.62117066  0.16561760  0.03966697    -0.12300
C1279       C  0.55233721  0.05545864  0.04664209    -0.10700
C1280       C  0.53466140  0.03910936  0.03311049    -0.12300
C1281       C  0.63607656  0.30090782  0.10750134    -0.10700
C1282       C  0.63070083  0.28888281  0.08280735    -0.12300
C1283       C  0.71922506  0.28596707  0.21264206    -0.10700
C1284       C  0.69955221  0.29870546  0.19733080    -0.12300
C1285       C  0.62643568  0.33508357  0.45604650    -0.10700
C1286       C  0.62193144  0.36009626  0.44428508    -0.12300
C1287       C  0.54042783  0.45970614  0.46511965    -0.10700
C1288       C  0.55958770  0.44744701  0.44960689    -0.12300
C1289       C  0.63651977  0.19520034  0.38791725    -0.10700
C1290       C  0.63108608  0.20863604  0.41175623    -0.12300
C1291       C  0.69925838  0.19823597  0.30059544    -0.10700
C1292       C  0.71864122  0.21420015  0.28882638    -0.12300
C1293       C  0.60454673  0.35922564  0.19943638    -0.10700
C1294       C  0.58244594  0.36714007  0.21331691    -0.12300
C1295       C  0.56514469  0.39065768  0.36185695    -0.10700
C1296       C  0.54897435  0.38237216  0.34071979    -0.12300
C1297       C  0.95871696  0.37134447  0.17430331    -0.10700
C1298       C  0.94345929  0.37874900  0.15188997    -0.12300
C1299       C  0.94344930  0.44154948  0.06304568    -0.10700
C1300       C  0.95944938  0.45566097  0.04504581    -0.12300
C1301       C  0.92202508  0.37460900  0.30316969    -0.10700
C1302       C  0.89868037  0.37048923  0.31690349    -0.12300
C1303       C  0.79905296  0.29354515  0.29524835    -0.10700
C1304       C  0.81286988  0.31076322  0.31208114    -0.12300
C1305       C  0.88089492  0.33171007  0.05343481    -0.10700
C1306       C  0.88561952  0.35477088  0.06761588    -0.12300
C1307       C  0.87967353  0.29807214  0.42416132    -0.10700
C1308       C  0.87190167  0.31376623  0.40192766    -0.12300
C1309       C  0.87253862  0.20253174  0.08980210    -0.10700
C1310       C  0.86340966  0.18616532  0.11081171    -0.12300
C1311       C  0.80647393  0.19253936  0.19956742    -0.10700
C1312       C  0.79478114  0.21154960  0.21584032    -0.12300
C1313       C  0.69302892  0.38274535  0.13479060    -0.10700
C1314       C  0.70767322  0.40518250  0.12829967    -0.12300
C1315       C  0.82926335  0.45292332  0.13596909    -0.10700
C1316       C  0.85297768  0.44110973  0.13050794    -0.12300
C1317       C  0.66531590  0.03185122  0.11917948    -0.10700
C1318       C  0.64409014  0.04754338  0.11186404    -0.12300
C1319       C  0.78484359  0.07384489  0.13356396    -0.10700
C1320       C  0.79844074  0.09708090  0.13882319    -0.12300
C1321       C  0.79689377  0.42833474  0.37997618    -0.10700
C1322       C  0.80992211  0.40481043  0.37511589    -0.12300
C1323       C  0.65391203  0.45468086  0.38833526    -0.10700
C1324       C  0.67602772  0.46958206  0.38212445    -0.12300
C1325       C  0.71428493  0.09392069  0.36957293    -0.10700
C1326       C  0.69720980  0.11433541  0.36218255    -0.12300
C1327       C  0.89289220  0.14981135  0.44635153    -0.10700
C1328       C  0.88539452  0.17173639  0.46098819    -0.12300
C1329       C  0.86447274  0.06274339  0.38189679    -0.10700
C1330       C  0.84137943  0.04978524  0.37513880    -0.12300
C1331       C  0.94974788  0.05217748  0.44274582    -0.10700
C1332       C  0.96317365  0.03279710  0.45796817    -0.12300
C1333       C  0.91621871  0.12364994  0.20374353    -0.10700
C1334       C  0.89149428  0.12865288  0.19280223    -0.12300
C1335       C  0.60627956  0.13369312  0.29690992    -0.10700
C1336       C  0.58352449  0.12601266  0.28345639    -0.12300
C1337       C  0.55631421  0.11246051  0.13501522    -0.10700
C1338       C  0.54104774  0.11963316  0.15703862    -0.12300
C1339       C  0.96120673  0.11848218  0.32862360    -0.10700
C1340       C  0.94850167  0.11469447  0.35332297    -0.12300
O1341       O  0.95888364  0.09639786  0.72301782    -0.70400
O1342       O  0.54252653  0.09742239  0.76312421    -0.71400
O1343       O  0.98208557  0.09521457  0.78526000    -0.60000
O1344       O  0.51945823  0.09619589  0.70070065    -0.68400
O1345       O  0.51949115  0.14695068  0.69886513    -0.67900
O1346       O  0.98079864  0.14596328  0.78504541    -0.59200
O1347       O  0.54063606  0.14816029  0.76175281    -0.71700
O1348       O  0.95945548  0.14717435  0.72228664    -0.70500
Cu1349     Cu  0.50076610  0.09447983  0.74299615     1.04600
Cu1350     Cu  0.00006587  0.14881431  0.74192661     1.04300
C1351       C  0.94613310  0.12209047  0.71679750     0.95800
C1352       C  0.55443255  0.12346636  0.76869455     0.95000
C1353       C  0.97539627  0.12012816  0.79844489     0.87100
C1354       C  0.52570080  0.12125602  0.68657324     0.93400
C1355       C  0.90354179  0.12423891  0.92779845     0.89100
C1356       C  0.87757536  0.10595507  0.91395516    -0.51200
C1357       C  0.88663748  0.08215125  0.89633125     0.12000
C1358       C  0.92117479  0.07855462  0.89431614     0.22900
C1359       C  0.92275249  0.10093518  0.94629878    -0.52100
C1360       C  0.93208733  0.07693509  0.92884372     0.12100
C1361       C  0.92284233  0.13399987  0.89971190    -0.51400
C1362       C  0.93202618  0.11009110  0.88209885     0.12700
H1363       H  0.85397727  0.11138031  0.91770552     0.17200
H1364       H  0.92850751  0.05902757  0.87996533     0.02900
H1365       H  0.92825993  0.10307833  0.97104733     0.17500
H1366       H  0.92815054  0.15765902  0.89386703     0.17300
O1367       O  0.73763954  0.05183170  0.84771157    -0.70400
O1368       O  0.77618678  0.46974673  0.85291145    -0.71400
O1369       O  0.71596240  0.49079245  0.85271249    -0.60000
O1370       O  0.79855358  0.03017471  0.84892466    -0.68400
O1371       O  0.79862564  0.03235456  0.90091656    -0.67900
O1372       O  0.71745318  0.49355649  0.90466235    -0.59200
O1373       O  0.77738819  0.47151823  0.90494848    -0.71700
O1374       O  0.73804551  0.05482622  0.89964057    -0.70500
Cu1375     Cu  0.75705992  0.01066564  0.84871568     1.04600
Cu1376     Cu  0.75794401  0.01327041  0.90436057     1.04300
C1377       C  0.73115924  0.06597531  0.87261234     0.95800
C1378       C  0.78276487  0.45769600  0.87947696     0.95000
C1379       C  0.70415941  0.48559444  0.87952652     0.87100
C1380       C  0.81165017  0.03680943  0.87472886     0.93400
O1381       O  0.76248360  0.03110485  0.65692309    -0.70400
O1382       O  0.72547565  0.44808114  0.65394378    -0.71400
O1383       O  0.78512465  0.47081103  0.65946700    -0.60000
O1384       O  0.70295517  0.00899297  0.65070062    -0.68400
O1385       O  0.70767215  0.00881229  0.59885118    -0.67900
O1386       O  0.78863898  0.47151068  0.60747931    -0.59200
O1387       O  0.72946684  0.44769178  0.60207172    -0.71700
O1388       O  0.76681337  0.03195425  0.60504952    -0.70500
Cu1389     Cu  0.74378294  0.48963806  0.65710627     1.04600
Cu1390     Cu  0.74825719  0.48993131  0.60153226     1.04300
C1391       C  0.77057429  0.04452125  0.63160306     0.95800
C1392       C  0.72172550  0.43476152  0.62787639     0.95000
C1393       C  0.79978358  0.46566671  0.63449972     0.87100
C1394       C  0.69290965  0.01547531  0.62323914     0.93400
C1395       C  0.81721654  0.12268671  0.64913586     0.89100
C1396       C  0.80075215  0.14518064  0.67010015    -0.51200
C1397       C  0.81850766  0.16854622  0.68018451     0.12000
C1398       C  0.85141037  0.16702897  0.66842983     0.22900
C1399       C  0.83035807  0.14228297  0.62237449    -0.51900
C1400       C  0.84843646  0.16546647  0.63250064     0.12100
C1401       C  0.84457548  0.11173187  0.66830261    -0.51400
C1402       C  0.86262687  0.13481720  0.67817723     0.12700
H1403       H  0.77710544  0.14297270  0.67621362     0.17200
H1404       H  0.86609357  0.18591147  0.67660520     0.02900
H1405       H  0.82602722  0.13804282  0.59771634     0.17500
H1406       H  0.84988303  0.08778692  0.67256321     0.17300
O1407       O  0.90654504  0.21230199  0.98687744    -0.70400
O1408       O  0.90451810  0.29039533  0.53143555    -0.71400
O1409       O  0.90224716  0.22775310  0.55092151    -0.60000
O1410       O  0.90587248  0.27452586  0.96714819    -0.68400
O1411       O  0.85579697  0.27366775  0.96561799    -0.67900
O1412       O  0.85228489  0.22850468  0.54682742    -0.59200
O1413       O  0.85443235  0.29144597  0.52921412    -0.71700
O1414       O  0.85651441  0.21104292  0.98333760    -0.70500
Cu1415     Cu  0.90657277  0.25127066  0.50924096     1.04600
Cu1416     Cu  0.85298755  0.25118400  0.50619848     1.04300
C1417       C  0.88239481  0.19941187  0.97791083     0.95800
C1418       C  0.87964530  0.30336625  0.53730297     0.95000
C1419       C  0.87615910  0.22060546  0.56154156     0.87100
C1420       C  0.88083640  0.28118796  0.95340957     0.93400
C1421       C  0.82744666  0.37880206  0.86423510     0.89100
C1422       C  0.85458262  0.38896416  0.84474659    -0.51200
C1423       C  0.87132554  0.36531165  0.83421977     0.12000
C1424       C  0.85935070  0.33344904  0.84402839     0.22900
C1425       C  0.80954303  0.35718084  0.84322502    -0.51900
C1426       C  0.82614201  0.33335474  0.83255397     0.12100
C1427       C  0.84053764  0.35858028  0.89058029    -0.51400
C1428       C  0.85743938  0.33488867  0.88009479     0.12700
H1429       H  0.86032717  0.41273281  0.84010919     0.17200
H1430       H  0.87305264  0.31412686  0.83544919     0.02900
H1431       H  0.78590616  0.36049232  0.83720216     0.17500
H1432       H  0.83700405  0.36275595  0.91531622     0.17300
C1433       C  0.87842747  0.42441656  0.61795799     0.89100
C1434       C  0.89896192  0.41019134  0.64304508    -0.51200
C1435       C  0.92211684  0.39376364  0.63110556     0.12000
C1436       C  0.92273533  0.39337962  0.59492896     0.22900
C1437       C  0.89908600  0.44367659  0.59684931    -0.51900
C1438       C  0.92232991  0.42745732  0.58464640     0.12100
C1439       C  0.86803078  0.39783153  0.59780260    -0.51400
C1440       C  0.89114301  0.38156867  0.58578890     0.12700
H1441       H  0.89542480  0.41268440  0.66804806     0.17200
H1442       H  0.94163228  0.38001338  0.58515023     0.02900
H1443       H  0.89541445  0.46778947  0.59164006     0.17500
H1444       H  0.84448827  0.39207869  0.59376812     0.17300
O1445       O  0.96254269  0.40042386  0.77841090    -0.70400
O1446       O  0.54292661  0.39684526  0.73373945    -0.71400
O1447       O  0.98154986  0.39693389  0.71510853    -0.60000
O1448       O  0.52438339  0.40261492  0.79683632    -0.68400
O1449       O  0.52470162  0.35204900  0.80248842    -0.67900
O1450       O  0.98054688  0.34622928  0.71873061    -0.59200
O1451       O  0.54150711  0.34623519  0.73898873    -0.71700
O1452       O  0.96325491  0.34974187  0.78261498    -0.70500
Cu1453     Cu  0.50282012  0.40101674  0.75588937     1.04600
Cu1454     Cu  0.50245506  0.34679428  0.76091487     1.04300
C1455       C  0.95044751  0.37519096  0.78737703     0.95800
C1456       C  0.55453637  0.37049724  0.72944053     0.95000
C1457       C  0.97447138  0.37116945  0.70383861     0.87100
C1458       C  0.53169347  0.37861432  0.81236878     0.93400
C1459       C  0.63128262  0.14653819  0.81532641     0.89100
C1460       C  0.62020867  0.16600920  0.84236358    -0.51200
C1461       C  0.64284466  0.17782948  0.86015124     0.12000
C1462       C  0.67481014  0.16918778  0.84908624     0.22900
C1463       C  0.65273098  0.16737457  0.79653519    -0.51900
C1464       C  0.67567923  0.17918249  0.81417778     0.12100
C1465       C  0.65157714  0.12219847  0.83064839    -0.51400
C1466       C  0.67445129  0.13399515  0.84823592     0.12700
H1467       H  0.59650815  0.16963672  0.84737740     0.17200
H1468       H  0.69341313  0.17870451  0.86353749     0.02900
H1469       H  0.65027265  0.17195912  0.77155061     0.17500
H1470       H  0.64856333  0.09782838  0.82731357     0.17300
C1471       C  0.62880520  0.43551333  0.89934621     0.89100
C1472       C  0.60928075  0.42260573  0.87291674    -0.51200
C1473       C  0.58616112  0.40462619  0.88337002     0.12000
C1474       C  0.58462379  0.40134952  0.91934106     0.22900
C1475       C  0.60682951  0.45238685  0.92043819    -0.51900
C1476       C  0.58354259  0.43469612  0.93085666     0.12100
C1477       C  0.63931045  0.40750827  0.91858675    -0.51400
C1478       C  0.61628824  0.38940886  0.92889211     0.12700
H1479       H  0.61334391  0.42725743  0.84818852     0.17200
H1480       H  0.56573165  0.38675548  0.92773884     0.02900
H1481       H  0.60916394  0.47637627  0.92614704     0.17500
H1482       H  0.66288399  0.40191192  0.92271142     0.17300
C1483       C  0.62957614  0.34714808  0.68122373     0.89100
C1484       C  0.61903683  0.32760804  0.65387645    -0.51200
C1485       C  0.64202899  0.31689304  0.63624587     0.12000
C1486       C  0.67376216  0.32648342  0.64787498     0.22900
C1487       C  0.65172122  0.32697962  0.70011126    -0.51900
C1488       C  0.67503170  0.31613486  0.68277957     0.12100
C1489       C  0.64885459  0.37232902  0.66643658    -0.51400
C1490       C  0.67198292  0.36165057  0.64898204     0.12700
H1491       H  0.59544754  0.32349650  0.64829280     0.17200
H1492       H  0.69264396  0.31788524  0.63354986     0.02900
H1493       H  0.64956849  0.32232457  0.72511575     0.17500
H1494       H  0.64479377  0.39653484  0.66974706     0.17300
C1495       C  0.61994049  0.06723806  0.59972386     0.89100
C1496       C  0.60001756  0.08030086  0.62524541    -0.51200
C1497       C  0.57742409  0.09858973  0.61388740     0.12000
C1498       C  0.57677193  0.10194739  0.57776348     0.22900
C1499       C  0.59844446  0.05070012  0.57762934    -0.51900
C1500       C  0.57574231  0.06864545  0.56607042     0.12100
C1501       C  0.63138454  0.09501788  0.58100793    -0.51400
C1502       C  0.60887076  0.11333469  0.56955089     0.12700
H1503       H  0.60341994  0.07548396  0.65010657     0.17200
H1504       H  0.55827978  0.11674080  0.56849938     0.02900
H1505       H  0.60061589  0.02667596  0.57209343     0.17500
H1506       H  0.65512655  0.10003946  0.57759389     0.17300
O1507       O  0.60270970  0.29151105  0.97580774    -0.70400
O1508       O  0.60008771  0.20927718  0.51685938    -0.71400
O1509       O  0.60302129  0.27006141  0.53927286    -0.60000
O1510       O  0.60323033  0.23023030  0.95334771    -0.68400
O1511       O  0.65326760  0.22979778  0.95577806    -0.67900
O1512       O  0.65307139  0.26811580  0.53923730    -0.59200
O1513       O  0.65009210  0.20680096  0.51858767    -0.71700
O1514       O  0.65277439  0.29159970  0.97661137    -0.70500
Cu1515     Cu  0.60048915  0.25032984  0.49622737     1.04600
Cu1516     Cu  0.65405531  0.24903971  0.49754137     1.04300
C1517       C  0.62761184  0.30478334  0.97000764     0.95800
C1518       C  0.62415491  0.19507399  0.52434279     0.95000
C1519       C  0.62857032  0.27507687  0.55254113     0.87100
C1520       C  0.62883790  0.22364676  0.94143989     0.93400
C1521       C  0.97803218  0.47449736  0.52359101     0.89100
C1522       C  0.00027397  0.45594320  0.50433662    -0.51200
C1523       C  0.51759798  0.47334858  0.98468427     0.12000
C1524       C  0.51098203  0.00805049  0.98609684     0.22900
C1525       C  0.99741705  0.49814018  0.54061746    -0.51900
C1526       C  0.51457461  0.01584759  0.52106756     0.12100
C1527       C  0.95956072  0.49318199  0.49943194    -0.51400
C1528       C  0.97673635  0.01088711  0.97982545     0.12700
H1529       H  0.50229723  0.43123653  0.50623980     0.17200
H1530       H  0.52507843  0.02237258  0.97020903     0.02900
H1531       H  0.49756843  0.50065066  0.56592584     0.17500
H1532       H  0.93505965  0.49323235  0.49864130     0.17300
C1533       C  0.78033208  0.27367584  0.77519665     0.89100
C1534       C  0.75960295  0.29148123  0.75230237    -0.51200
C1535       C  0.74205443  0.27327917  0.73390410     0.12000
C1536       C  0.74703470  0.23874538  0.74008592     0.22900
C1537       C  0.75905424  0.25261017  0.79388699    -0.51900
C1538       C  0.74149268  0.23437680  0.77558937     0.12100
C1539       C  0.79868160  0.25230679  0.75464348    -0.51400
C1540       C  0.78139114  0.23394262  0.73624802     0.12700
H1541       H  0.75837879  0.31628544  0.75130049     0.17200
H1542       H  0.73282734  0.22383969  0.72518931     0.02900
H1543       H  0.75760498  0.25255103  0.81930817     0.17500
H1544       H  0.82318565  0.25158515  0.75481197     0.17300
C1545       C  0.61542737  0.14162504  0.55284044    -0.10700
C1546       C  0.62117071  0.16561756  0.53966699    -0.12300
C1547       C  0.55233717  0.05545863  0.54664206    -0.10700
C1548       C  0.53466129  0.03910939  0.53311051    -0.12300
C1549       C  0.63607646  0.30090780  0.60750140    -0.10700
C1550       C  0.63070081  0.28888288  0.58280734    -0.12300
C1551       C  0.71922506  0.28596701  0.71264199    -0.10700
C1552       C  0.69955220  0.29870539  0.69733078    -0.12300
C1553       C  0.62643569  0.33508350  0.95604641    -0.10700
C1554       C  0.62193138  0.36009623  0.94428509    -0.12300
C1555       C  0.54042785  0.45970620  0.96511964    -0.10700
C1556       C  0.55958769  0.44744705  0.94960685    -0.12300
C1557       C  0.63651973  0.19520036  0.88791723    -0.10700
C1558       C  0.63108609  0.20863603  0.91175620    -0.12300
C1559       C  0.69925844  0.19823595  0.80059544    -0.10700
C1560       C  0.71864130  0.21420010  0.78882637    -0.12300
C1561       C  0.60454678  0.35922570  0.69943637    -0.10700
C1562       C  0.58244597  0.36714006  0.71331683    -0.12300
C1563       C  0.56514469  0.39065761  0.86185694    -0.10700
C1564       C  0.54897426  0.38237206  0.84071986    -0.12300
C1565       C  0.95871695  0.37134447  0.67430334    -0.10700
C1566       C  0.94345926  0.37874904  0.65188999    -0.12300
C1567       C  0.94344923  0.44154949  0.56304565    -0.10700
C1568       C  0.95944941  0.45566100  0.54504583    -0.12300
C1569       C  0.92202508  0.37460900  0.80316969    -0.10700
C1570       C  0.89868040  0.37048930  0.81690354    -0.12300
C1571       C  0.79905303  0.29354509  0.79524833    -0.10700
C1572       C  0.81286991  0.31076315  0.81208116    -0.12300
C1573       C  0.88089499  0.33171007  0.55343484    -0.10700
C1574       C  0.88561943  0.35477095  0.56761591    -0.12300
C1575       C  0.87967345  0.29807212  0.92416132    -0.10700
C1576       C  0.87190157  0.31376618  0.90192762    -0.12300
C1577       C  0.87253858  0.20253184  0.58980210    -0.10700
C1578       C  0.86340960  0.18616529  0.61081161    -0.12300
C1579       C  0.80647398  0.19253931  0.69956744    -0.10700
C1580       C  0.79478118  0.21154961  0.71584030    -0.12300
C1581       C  0.69302891  0.38274540  0.63479067    -0.10700
C1582       C  0.70767326  0.40518253  0.62829972    -0.12300
C1583       C  0.82926337  0.45292328  0.63596911    -0.10700
C1584       C  0.85297768  0.44110971  0.63050801    -0.12300
C1585       C  0.66531584  0.03185122  0.61917948    -0.10700
C1586       C  0.64409005  0.04754331  0.61186395    -0.12300
C1587       C  0.78484344  0.07384496  0.63356391    -0.10700
C1588       C  0.79844066  0.09708090  0.63882310    -0.12300
C1589       C  0.79689371  0.42833474  0.87997623    -0.10700
C1590       C  0.80992212  0.40481049  0.87511593    -0.12300
C1591       C  0.65391210  0.45468077  0.88833531    -0.10700
C1592       C  0.67602779  0.46958198  0.88212454    -0.12300
C1593       C  0.71428498  0.09392066  0.86957295    -0.10700
C1594       C  0.69720988  0.11433542  0.86218254    -0.12300
C1595       C  0.89289216  0.14981139  0.94635153    -0.10700
C1596       C  0.88539458  0.17173641  0.96098823    -0.12300
C1597       C  0.86447270  0.06274344  0.88189681    -0.10700
C1598       C  0.84137946  0.04978519  0.87513881    -0.12300
C1599       C  0.94974795  0.05217759  0.94274584    -0.10700
C1600       C  0.96317366  0.03279720  0.95796823    -0.12300
C1601       C  0.91621868  0.12364997  0.70374361    -0.10700
C1602       C  0.89149424  0.12865282  0.69280230    -0.12300
C1603       C  0.60627951  0.13369307  0.79690998    -0.10700
C1604       C  0.58352445  0.12601265  0.78345641    -0.12300
C1605       C  0.55631423  0.11246050  0.63501517    -0.10700
C1606       C  0.54104782  0.11963321  0.65703859    -0.12300
C1607       C  0.96120669  0.11848208  0.82862356    -0.10700
C1608       C  0.94850165  0.11469438  0.85332291    -0.12300
O1609       O  0.95888366  0.59639783  0.22301787    -0.70400
O1610       O  0.54252653  0.59742235  0.26312427    -0.71400
O1611       O  0.98208553  0.59521464  0.28526002    -0.60000
O1612       O  0.51945816  0.59619577  0.20070070    -0.68400
O1613       O  0.51949115  0.64695057  0.19886521    -0.67900
O1614       O  0.98079863  0.64596335  0.28504539    -0.59200
O1615       O  0.54063601  0.64816024  0.26175298    -0.71700
O1616       O  0.95945552  0.64717432  0.22228660    -0.70500
Cu1617     Cu  0.50076606  0.59447984  0.24299621     1.04600
Cu1618     Cu  0.00006597  0.64881432  0.24192664     1.04300
C1619       C  0.94613314  0.62209044  0.21679748     0.95800
C1620       C  0.55443254  0.62346631  0.26869466     0.95000
C1621       C  0.97539625  0.62012823  0.29844491     0.87100
C1622       C  0.52570073  0.62125593  0.18657330     0.93400
C1623       C  0.90354179  0.62423890  0.42779847     0.89100
C1624       C  0.87757551  0.60595503  0.41395509    -0.51200
C1625       C  0.88663746  0.58215126  0.39633121     0.12000
C1626       C  0.92117479  0.57855461  0.39431611     0.22900
C1627       C  0.92275246  0.60093508  0.44629867    -0.52100
C1628       C  0.93208728  0.57693501  0.42884373     0.12100
C1629       C  0.92284231  0.63399968  0.39971199    -0.51400
C1630       C  0.93202617  0.61009115  0.38209886     0.12700
H1631       H  0.85397655  0.61138051  0.41770560     0.17200
H1632       H  0.92850750  0.55902755  0.37996524     0.02900
H1633       H  0.92826005  0.60307831  0.47104788     0.17500
H1634       H  0.92815075  0.65765988  0.39386694     0.17300
O1635       O  0.73763950  0.55183174  0.34771153    -0.70400
O1636       O  0.77618673  0.96974670  0.35291152    -0.71400
O1637       O  0.71596241  0.99079245  0.35271248    -0.60000
O1638       O  0.79855354  0.53017478  0.34892464    -0.68400
O1639       O  0.79862559  0.53235457  0.40091653    -0.67900
O1640       O  0.71745316  0.99355637  0.40466237    -0.59200
O1641       O  0.77738826  0.97151814  0.40494856    -0.71700
O1642       O  0.73804545  0.55482619  0.39964054    -0.70500
Cu1643     Cu  0.75705989  0.51066569  0.34871567     1.04600
Cu1644     Cu  0.75794398  0.51327034  0.40436055     1.04300
C1645       C  0.73115922  0.56597533  0.37261232     0.95800
C1646       C  0.78276491  0.95769595  0.37947699     0.95000
C1647       C  0.70415939  0.98559443  0.37952650     0.87100
C1648       C  0.81165013  0.53680949  0.37472883     0.93400
O1649       O  0.76248356  0.53110487  0.15692309    -0.70400
O1650       O  0.72547561  0.94808106  0.15394383    -0.71400
O1651       O  0.78512460  0.97081099  0.15946697    -0.60000
O1652       O  0.70295517  0.50899291  0.15070059    -0.68400
O1653       O  0.70767215  0.50881219  0.09885114    -0.67900
O1654       O  0.78863892  0.97151063  0.10747928    -0.59200
O1655       O  0.72946677  0.94769180  0.10207176    -0.71700
O1656       O  0.76681335  0.53195423  0.10504952    -0.70500
Cu1657     Cu  0.74378289  0.98963804  0.15710627     1.04600
Cu1658     Cu  0.74825713  0.98993132  0.10153225     1.04300
C1659       C  0.77057431  0.54452126  0.13160309     0.95800
C1660       C  0.72172545  0.93476149  0.12787641     0.95000
C1661       C  0.79978353  0.96566668  0.13449969     0.87100
C1662       C  0.69290968  0.51547524  0.12323911     0.93400
C1663       C  0.81721656  0.62268670  0.14913597     0.89100
C1664       C  0.80075202  0.64518066  0.17010025    -0.51200
C1665       C  0.81850769  0.66854623  0.18018458     0.12000
C1666       C  0.85141038  0.66702901  0.16842990     0.22900
C1667       C  0.83035806  0.64228300  0.12237455    -0.51900
C1668       C  0.84843644  0.66546651  0.13250073     0.12100
C1669       C  0.84457545  0.61173207  0.16830272    -0.51400
C1670       C  0.86262691  0.63481722  0.17817728     0.12700
H1671       H  0.77710603  0.64297284  0.17621345     0.17200
H1672       H  0.86609360  0.68591153  0.17660526     0.02900
H1673       H  0.82602723  0.63804285  0.09771657     0.17500
H1674       H  0.84988319  0.58778618  0.17256355     0.17300
O1675       O  0.90654497  0.71230187  0.48687747    -0.70400
O1676       O  0.90451809  0.79039537  0.03143550    -0.71400
O1677       O  0.90224717  0.72775315  0.05092152    -0.60000
O1678       O  0.90587244  0.77452573  0.46714824    -0.68400
O1679       O  0.85579693  0.77366777  0.46561797    -0.67900
O1680       O  0.85228491  0.72850453  0.04682736    -0.59200
O1681       O  0.85443233  0.79144583  0.02921414    -0.71700
O1682       O  0.85651434  0.71104286  0.48333761    -0.70500
Cu1683     Cu  0.90657287  0.75127072  0.00924093     1.04600
Cu1684     Cu  0.85298764  0.75118393  0.00619846     1.04300
C1685       C  0.88239475  0.69941177  0.47791082     0.95800
C1686       C  0.87964526  0.80336618  0.03730294     0.95000
C1687       C  0.87615915  0.72060540  0.06154154     0.87100
C1688       C  0.88083641  0.78118789  0.45340958     0.93400
C1689       C  0.82744663  0.87880204  0.36423510     0.89100
C1690       C  0.85458256  0.88896395  0.34474661    -0.51200
C1691       C  0.87132554  0.86531164  0.33421979     0.12000
C1692       C  0.85935068  0.83344905  0.34402845     0.22900
C1693       C  0.80954303  0.85718084  0.34322499    -0.51900
C1694       C  0.82614200  0.83335475  0.33255397     0.12100
C1695       C  0.84053757  0.85858023  0.39058027    -0.51400
C1696       C  0.85743938  0.83488869  0.38009485     0.12700
H1697       H  0.86032734  0.91273367  0.34010897     0.17200
H1698       H  0.87305278  0.81412672  0.33544922     0.02900
H1699       H  0.78590612  0.86049236  0.33720208     0.17500
H1700       H  0.83700390  0.86275595  0.41531649     0.17300
C1701       C  0.87842741  0.92441655  0.11795798     0.89100
C1702       C  0.89896190  0.91019133  0.14304497    -0.51200
C1703       C  0.92211679  0.89376366  0.13110560     0.12000
C1704       C  0.92273544  0.89337958  0.09492894     0.22900
C1705       C  0.89908598  0.94367644  0.09684933    -0.51900
C1706       C  0.92232989  0.92745737  0.08464646     0.12100
C1707       C  0.86803079  0.89783144  0.09780257    -0.51400
C1708       C  0.89114305  0.88156866  0.08578888     0.12700
H1709       H  0.89542462  0.91268449  0.16804849     0.17200
H1710       H  0.94163201  0.88001371  0.08515046     0.02900
H1711       H  0.89541423  0.96779008  0.09163989     0.17500
H1712       H  0.84448826  0.89207855  0.09376814     0.17300
O1713       O  0.96254267  0.90042391  0.27841090    -0.70400
O1714       O  0.54292659  0.89684527  0.23373955    -0.71400
O1715       O  0.98154987  0.89693393  0.21510850    -0.60000
O1716       O  0.52438335  0.90261497  0.29683631    -0.68400
O1717       O  0.52470174  0.85204903  0.30248836    -0.67900
O1718       O  0.98054693  0.84622931  0.21873058    -0.59200
O1719       O  0.54150704  0.84623517  0.23898867    -0.71700
O1720       O  0.96325494  0.84974190  0.28261499    -0.70500
Cu1721     Cu  0.50282008  0.90101678  0.25588937     1.04600
Cu1722     Cu  0.50245504  0.84679422  0.26091485     1.04300
C1723       C  0.95044754  0.87519099  0.28737708     0.95800
C1724       C  0.55453635  0.87049722  0.22944057     0.95000
C1725       C  0.97447142  0.87116948  0.20383860     0.87100
C1726       C  0.53169353  0.87861436  0.31236872     0.93400
C1727       C  0.63128262  0.64653820  0.31532640     0.89100
C1728       C  0.62020865  0.66600924  0.34236354    -0.51200
C1729       C  0.64284462  0.67782952  0.36015123     0.12000
C1730       C  0.67481010  0.66918777  0.34908628     0.22900
C1731       C  0.65273103  0.66737450  0.29653520    -0.51900
C1732       C  0.67567928  0.67918240  0.31417779     0.12100
C1733       C  0.65157711  0.62219861  0.33064846    -0.51400
C1734       C  0.67445119  0.63399514  0.34823602     0.12700
H1735       H  0.59650811  0.66963669  0.34737738     0.17200
H1736       H  0.69341312  0.67870454  0.36353763     0.02900
H1737       H  0.65027269  0.67195904  0.27155058     0.17500
H1738       H  0.64856325  0.59782788  0.32731346     0.17300
C1739       C  0.62880520  0.93551339  0.39934620     0.89100
C1740       C  0.60928073  0.92260578  0.37291678    -0.51200
C1741       C  0.58616115  0.90462623  0.38337001     0.12000
C1742       C  0.58462376  0.90134953  0.41934109     0.22900
C1743       C  0.60682953  0.95238702  0.42043821    -0.51900
C1744       C  0.58354263  0.93469616  0.43085666     0.12100
C1745       C  0.63931042  0.90750834  0.41858672    -0.51400
C1746       C  0.61628827  0.88940890  0.42889210     0.12700
H1747       H  0.61334391  0.92725757  0.34818834     0.17200
H1748       H  0.56573183  0.88675569  0.42773875     0.02900
H1749       H  0.60916391  0.97637584  0.42614691     0.17500
H1750       H  0.66288414  0.90191195  0.42271137     0.17300
C1751       C  0.62957617  0.84714809  0.18122372     0.89100
C1752       C  0.61903689  0.82760797  0.15387641    -0.51200
C1753       C  0.64202910  0.81689306  0.13624582     0.12000
C1754       C  0.67376223  0.82648344  0.14787497     0.22900
C1755       C  0.65172129  0.82697968  0.20011124    -0.51900
C1756       C  0.67503175  0.81613488  0.18277956     0.12100
C1757       C  0.64885465  0.87232901  0.16643657    -0.51400
C1758       C  0.67198298  0.86165056  0.14898203     0.12700
H1759       H  0.59544785  0.82349636  0.14829282     0.17200
H1760       H  0.69264406  0.81788527  0.13354984     0.02900
H1761       H  0.64956857  0.82232468  0.22511580     0.17500
H1762       H  0.64479381  0.89653502  0.16974705     0.17300
C1763       C  0.61994055  0.56723809  0.09972391     0.89100
C1764       C  0.60001758  0.58030084  0.12524546    -0.51200
C1765       C  0.57742410  0.59858975  0.11388742     0.12000
C1766       C  0.57677205  0.60194732  0.07776356     0.22900
C1767       C  0.59844453  0.55070013  0.07762943    -0.51900
C1768       C  0.57574233  0.56864545  0.06607050     0.12100
C1769       C  0.63138457  0.59501790  0.08100795    -0.51400
C1770       C  0.60887078  0.61333471  0.06955088     0.12700
H1771       H  0.60341987  0.57548392  0.15010651     0.17200
H1772       H  0.55827942  0.61674111  0.06849915     0.02900
H1773       H  0.60061600  0.52667590  0.07209350     0.17500
H1774       H  0.65512667  0.60003953  0.07759387     0.17300
O1775       O  0.60270974  0.79151103  0.47580773    -0.70400
O1776       O  0.60008763  0.70927717  0.01685936    -0.71400
O1777       O  0.60302126  0.77006147  0.03927285    -0.60000
O1778       O  0.60323030  0.73023032  0.45334769    -0.68400
O1779       O  0.65326755  0.72979781  0.45577809    -0.67900
O1780       O  0.65307135  0.76811579  0.03923727    -0.59200
O1781       O  0.65009203  0.70680098  0.01858764    -0.71700
O1782       O  0.65277441  0.79159975  0.47661136    -0.70500
Cu1783     Cu  0.60048909  0.75032986  0.99622738     1.04600
Cu1784     Cu  0.65405525  0.74903972  0.99754135     1.04300
C1785       C  0.62761185  0.80478339  0.47000766     0.95800
C1786       C  0.62415485  0.69507400  0.02434276     0.95000
C1787       C  0.62857033  0.77507688  0.05254112     0.87100
C1788       C  0.62883787  0.72364680  0.44143988     0.93400
C1789       C  0.97803212  0.97449738  0.02359098     0.89100
C1790       C  0.00027390  0.95594323  0.00433662    -0.51200
C1791       C  0.51759801  0.97334852  0.48468433     0.12000
C1792       C  0.51098198  0.50805047  0.48609688     0.22900
C1793       C  0.99741698  0.99814019  0.04061763    -0.51900
C1794       C  0.51457466  0.51584764  0.02106751     0.12100
C1795       C  0.95956051  0.99318206  0.99943198    -0.51400
C1796       C  0.97673640  0.51088704  0.47982542     0.12700
H1797       H  0.50229726  0.93123648  0.00623978     0.17200
H1798       H  0.52507840  0.52237265  0.47020907     0.02900
H1799       H  0.49756856  0.00065057  0.06592508     0.17500
H1800       H  0.93506018  0.99323245  0.99864135     0.17300
C1801       C  0.78033205  0.77367584  0.27519672     0.89100
C1802       C  0.75960292  0.79148106  0.25230245    -0.51200
C1803       C  0.74205439  0.77327919  0.23390417     0.12000
C1804       C  0.74703469  0.73874540  0.24008600     0.22900
C1805       C  0.75905424  0.75261009  0.29388704    -0.51900
C1806       C  0.74149267  0.73437675  0.27558942     0.12100
C1807       C  0.79868143  0.75230679  0.25464349    -0.51400
C1808       C  0.78139110  0.73394263  0.23624803     0.12700
H1809       H  0.75837872  0.81628616  0.25130051     0.17200
H1810       H  0.73282712  0.72383954  0.22518923     0.02900
H1811       H  0.75760495  0.75255091  0.31930838     0.17500
H1812       H  0.82318625  0.75158513  0.25481201     0.17300
C1813       C  0.61542736  0.64162506  0.05284043    -0.10700
C1814       C  0.62117069  0.66561758  0.03966697    -0.12300
C1815       C  0.55233722  0.55545866  0.04664208    -0.10700
C1816       C  0.53466138  0.53910943  0.03311047    -0.12300
C1817       C  0.63607658  0.80090780  0.10750136    -0.10700
C1818       C  0.63070085  0.78888283  0.08280734    -0.12300
C1819       C  0.71922508  0.78596706  0.21264205    -0.10700
C1820       C  0.69955223  0.79870544  0.19733079    -0.12300
C1821       C  0.62643570  0.83508358  0.45604651    -0.10700
C1822       C  0.62193143  0.86009630  0.44428512    -0.12300
C1823       C  0.54042785  0.95970613  0.46511966    -0.10700
C1824       C  0.55958774  0.94744709  0.44960687    -0.12300
C1825       C  0.63651967  0.69520031  0.38791725    -0.10700
C1826       C  0.63108607  0.70863605  0.41175621    -0.12300
C1827       C  0.69925839  0.69823594  0.30059545    -0.10700
C1828       C  0.71864123  0.71420012  0.28882639    -0.12300
C1829       C  0.60454676  0.85922563  0.19943638    -0.10700
C1830       C  0.58244596  0.86714004  0.21331691    -0.12300
C1831       C  0.56514469  0.89065768  0.36185694    -0.10700
C1832       C  0.54897428  0.88237214  0.34071984    -0.12300
C1833       C  0.95871693  0.87134449  0.17430334    -0.10700
C1834       C  0.94345918  0.87874897  0.15189005    -0.12300
C1835       C  0.94344920  0.94154950  0.06304565    -0.10700
C1836       C  0.95944935  0.95566095  0.04504581    -0.12300
C1837       C  0.92202508  0.87460901  0.30316970    -0.10700
C1838       C  0.89868038  0.87048923  0.31690350    -0.12300
C1839       C  0.79905298  0.79354512  0.29524835    -0.10700
C1840       C  0.81286990  0.81076320  0.31208114    -0.12300
C1841       C  0.88089494  0.83171004  0.05343482    -0.10700
C1842       C  0.88561952  0.85477087  0.06761588    -0.12300
C1843       C  0.87967353  0.79807211  0.42416134    -0.10700
C1844       C  0.87190168  0.81376623  0.40192768    -0.12300
C1845       C  0.87253863  0.70253176  0.08980211    -0.10700
C1846       C  0.86340968  0.68616530  0.11081169    -0.12300
C1847       C  0.80647395  0.69253934  0.19956746    -0.10700
C1848       C  0.79478110  0.71154959  0.21584032    -0.12300
C1849       C  0.69302895  0.88274534  0.13479060    -0.10700
C1850       C  0.70767326  0.90518248  0.12829966    -0.12300
C1851       C  0.82926335  0.95292333  0.13596908    -0.10700
C1852       C  0.85297764  0.94110972  0.13050796    -0.12300
C1853       C  0.66531591  0.53185121  0.11917946    -0.10700
C1854       C  0.64409014  0.54754335  0.11186404    -0.12300
C1855       C  0.78484350  0.57384491  0.13356396    -0.10700
C1856       C  0.79844072  0.59708088  0.13882323    -0.12300
C1857       C  0.79689379  0.92833473  0.37997619    -0.10700
C1858       C  0.80992212  0.90481042  0.37511590    -0.12300
C1859       C  0.65391206  0.95468084  0.38833528    -0.10700
C1860       C  0.67602774  0.96958204  0.38212445    -0.12300
C1861       C  0.71428494  0.59392067  0.36957293    -0.10700
C1862       C  0.69720981  0.61433539  0.36218255    -0.12300
C1863       C  0.89289223  0.64981133  0.44635153    -0.10700
C1864       C  0.88539455  0.67173636  0.46098819    -0.12300
C1865       C  0.86447274  0.56274338  0.38189679    -0.10700
C1866       C  0.84137945  0.54978521  0.37513880    -0.12300
C1867       C  0.94974788  0.55217745  0.44274582    -0.10700
C1868       C  0.96317366  0.53279708  0.45796818    -0.12300
C1869       C  0.91621873  0.62364991  0.20374354    -0.10700
C1870       C  0.89149431  0.62865286  0.19280223    -0.12300
C1871       C  0.60627958  0.63369309  0.29690991    -0.10700
C1872       C  0.58352451  0.62601263  0.28345638    -0.12300
C1873       C  0.55631423  0.61246049  0.13501522    -0.10700
C1874       C  0.54104777  0.61963314  0.15703862    -0.12300
C1875       C  0.96120675  0.61848216  0.32862361    -0.10700
C1876       C  0.94850169  0.61469443  0.35332297    -0.12300
O1877       O  0.95888354  0.59639783  0.72301785    -0.70400
O1878       O  0.54252655  0.59742237  0.76312420    -0.71400
O1879       O  0.98208553  0.59521455  0.78526001    -0.60000
O1880       O  0.51945825  0.59619591  0.70070066    -0.68400
O1881       O  0.51949118  0.64695072  0.69886512    -0.67900
O1882       O  0.98079865  0.64596328  0.78504543    -0.59200
O1883       O  0.54063609  0.64816029  0.76175282    -0.71700
O1884       O  0.95945548  0.64717435  0.72228663    -0.70500
Cu1885     Cu  0.50076612  0.59447983  0.74299614     1.04600
Cu1886     Cu  0.00006588  0.64881440  0.74192661     1.04300
C1887       C  0.94613307  0.62209047  0.71679750     0.95800
C1888       C  0.55443257  0.62346635  0.76869455     0.95000
C1889       C  0.97539628  0.62012815  0.79844491     0.87100
C1890       C  0.52570082  0.62125606  0.68657325     0.93400
C1891       C  0.90354175  0.62423889  0.92779845     0.89100
C1892       C  0.87757534  0.60595506  0.91395514    -0.51200
C1893       C  0.88663746  0.58215124  0.89633124     0.12000
C1894       C  0.92117479  0.57855462  0.89431613     0.22900
C1895       C  0.92275241  0.60093514  0.94629875    -0.52100
C1896       C  0.93208729  0.57693508  0.92884373     0.12100
C1897       C  0.92284233  0.63399987  0.89971194    -0.51400
C1898       C  0.93202619  0.61009112  0.88209888     0.12700
H1899       H  0.85397715  0.61138032  0.91770553     0.17200
H1900       H  0.92850750  0.55902757  0.87996532     0.02900
H1901       H  0.92825988  0.60307829  0.97104756     0.17500
H1902       H  0.92815055  0.65765898  0.89386710     0.17300
O1903       O  0.73763957  0.55183173  0.84771156    -0.70400
O1904       O  0.77618679  0.96974669  0.85291145    -0.71400
O1905       O  0.71596239  0.99079241  0.85271249    -0.60000
O1906       O  0.79855359  0.53017474  0.84892466    -0.68400
O1907       O  0.79862566  0.53235453  0.90091656    -0.67900
O1908       O  0.71745316  0.99355650  0.90466235    -0.59200
O1909       O  0.77738820  0.97151824  0.90494848    -0.71700
O1910       O  0.73804553  0.55482620  0.89964057    -0.70500
Cu1911     Cu  0.75705993  0.51066571  0.84871568     1.04600
Cu1912     Cu  0.75794402  0.51327040  0.90436057     1.04300
C1913       C  0.73115926  0.56597531  0.87261235     0.95800
C1914       C  0.78276490  0.95769600  0.87947696     0.95000
C1915       C  0.70415938  0.98559449  0.87952652     0.87100
C1916       C  0.81165019  0.53680941  0.87472886     0.93400
O1917       O  0.76248362  0.53110485  0.65692309    -0.70400
O1918       O  0.72547567  0.94808111  0.65394378    -0.71400
O1919       O  0.78512467  0.97081101  0.65946700    -0.60000
O1920       O  0.70295518  0.50899297  0.65070062    -0.68400
O1921       O  0.70767216  0.50881229  0.59885117    -0.67900
O1922       O  0.78863900  0.97151066  0.60747931    -0.59200
O1923       O  0.72946686  0.94769175  0.60207172    -0.71700
O1924       O  0.76681339  0.53195425  0.60504952    -0.70500
Cu1925     Cu  0.74378295  0.98963805  0.65710627     1.04600
Cu1926     Cu  0.74825719  0.98993130  0.60153226     1.04300
C1927       C  0.77057433  0.54452126  0.63160307     0.95800
C1928       C  0.72172551  0.93476148  0.62787640     0.95000
C1929       C  0.79978360  0.96566669  0.63449972     0.87100
C1930       C  0.69290966  0.51547529  0.62323914     0.93400
C1931       C  0.81721651  0.62268674  0.64913585     0.89100
C1932       C  0.80075217  0.64518066  0.67010017    -0.51200
C1933       C  0.81850768  0.66854620  0.68018453     0.12000
C1934       C  0.85141041  0.66702896  0.66842985     0.22900
C1935       C  0.83035805  0.64228304  0.62237450    -0.51900
C1936       C  0.84843647  0.66546647  0.63250066     0.12100
C1937       C  0.84457545  0.61173189  0.66830259    -0.51400
C1938       C  0.86262687  0.63481718  0.67817722     0.12700
H1939       H  0.77710536  0.64297271  0.67621367     0.17200
H1940       H  0.86609358  0.68591140  0.67660521     0.02900
H1941       H  0.82602714  0.63804294  0.59771629     0.17500
H1942       H  0.84988297  0.58778679  0.67256323     0.17300
O1943       O  0.90654506  0.71230196  0.98687746    -0.70400
O1944       O  0.90451808  0.79039530  0.53143554    -0.71400
O1945       O  0.90224716  0.72775306  0.55092154    -0.60000
O1946       O  0.90587251  0.77452583  0.96714816    -0.68400
O1947       O  0.85579699  0.77366786  0.96561801    -0.67900
O1948       O  0.85228490  0.72850467  0.54682739    -0.59200
O1949       O  0.85443234  0.79144594  0.52921411    -0.71700
O1950       O  0.85651444  0.71104291  0.98333759    -0.70500
Cu1951     Cu  0.90657278  0.75127063  0.50924097     1.04600
Cu1952     Cu  0.85298755  0.75118398  0.50619847     1.04300
C1953       C  0.88239484  0.69941185  0.97791084     0.95800
C1954       C  0.87964526  0.80336624  0.53730293     0.95000
C1955       C  0.87615909  0.72060544  0.56154155     0.87100
C1956       C  0.88083643  0.78118802  0.95340959     0.93400
C1957       C  0.82744668  0.87880206  0.86423512     0.89100
C1958       C  0.85458265  0.88896415  0.84474659    -0.51200
C1959       C  0.87132556  0.86531163  0.83421977     0.12000
C1960       C  0.85935072  0.83344903  0.84402839     0.22900
C1961       C  0.80954305  0.85718085  0.84322504    -0.51900
C1962       C  0.82614202  0.83335477  0.83255397     0.12100
C1963       C  0.84053765  0.85858027  0.89058029    -0.51400
C1964       C  0.85743939  0.83488867  0.88009479     0.12700
H1965       H  0.86032720  0.91273280  0.84010918     0.17200
H1966       H  0.87305264  0.81412684  0.83544918     0.02900
H1967       H  0.78590619  0.86049234  0.83720217     0.17500
H1968       H  0.83700407  0.86275594  0.91531622     0.17300
C1969       C  0.87842749  0.92441655  0.61795800     0.89100
C1970       C  0.89896193  0.91019132  0.64304508    -0.51200
C1971       C  0.92211685  0.89376363  0.63110554     0.12000
C1972       C  0.92273535  0.89337961  0.59492894     0.22900
C1973       C  0.89908603  0.94367658  0.59684932    -0.51900
C1974       C  0.92232994  0.92745731  0.58464641     0.12100
C1975       C  0.86803080  0.89783153  0.59780259    -0.51400
C1976       C  0.89114303  0.88156868  0.58578886     0.12700
H1977       H  0.89542482  0.91268437  0.66804807     0.17200
H1978       H  0.94163227  0.88001340  0.58515023     0.02900
H1979       H  0.89541447  0.96778948  0.59164005     0.17500
H1980       H  0.84448829  0.89207869  0.59376814     0.17300
O1981       O  0.96254263  0.90042394  0.77841091    -0.70400
O1982       O  0.54292664  0.89684526  0.73373946    -0.71400
O1983       O  0.98154970  0.89693390  0.71510853    -0.60000
O1984       O  0.52438341  0.90261493  0.79683633    -0.68400
O1985       O  0.52470164  0.85204899  0.80248841    -0.67900
O1986       O  0.98054691  0.84622927  0.71873058    -0.59200
O1987       O  0.54150705  0.84623517  0.73898870    -0.71700
O1988       O  0.96325494  0.84974192  0.78261496    -0.70500
Cu1989     Cu  0.50282013  0.90101683  0.75588936     1.04600
Cu1990     Cu  0.50245505  0.84679428  0.76091486     1.04300
C1991       C  0.95044751  0.87519099  0.78737704     0.95800
C1992       C  0.55453635  0.87049723  0.72944052     0.95000
C1993       C  0.97447136  0.87116943  0.70383859     0.87100
C1994       C  0.53169349  0.87861431  0.81236877     0.93400
C1995       C  0.63128262  0.64653819  0.81532641     0.89100
C1996       C  0.62020869  0.66600922  0.84236357    -0.51200
C1997       C  0.64284467  0.67782954  0.86015122     0.12000
C1998       C  0.67481015  0.66918778  0.84908623     0.22900
C1999       C  0.65273101  0.66737455  0.79653518    -0.51900
C2000       C  0.67567926  0.67918249  0.81417778     0.12100
C2001       C  0.65157709  0.62219844  0.83064842    -0.51400
C2002       C  0.67445127  0.63399514  0.84823593     0.12700
H2003       H  0.59650817  0.66963670  0.84737744     0.17200
H2004       H  0.69341319  0.67870451  0.86353750     0.02900
H2005       H  0.65027268  0.67195911  0.77155063     0.17500
H2006       H  0.64856325  0.59782849  0.82731363     0.17300
C2007       C  0.62880519  0.93551333  0.89934622     0.89100
C2008       C  0.60928075  0.92260571  0.87291673    -0.51200
C2009       C  0.58616112  0.90462619  0.88337002     0.12000
C2010       C  0.58462380  0.90134957  0.91934103     0.22900
C2011       C  0.60682946  0.95238686  0.92043816    -0.51900
C2012       C  0.58354256  0.93469612  0.93085666     0.12100
C2013       C  0.63931027  0.90750831  0.91858673    -0.51400
C2014       C  0.61628821  0.88940888  0.92889211     0.12700
H2015       H  0.61334395  0.92725739  0.84818849     0.17200
H2016       H  0.56573140  0.88675536  0.92773894     0.02900
H2017       H  0.60916387  0.97637636  0.92614703     0.17500
H2018       H  0.66288468  0.90191173  0.92271155     0.17300
C2019       C  0.62957614  0.84714808  0.68122374     0.89100
C2020       C  0.61903681  0.82760802  0.65387646    -0.51200
C2021       C  0.64202899  0.81689304  0.63624586     0.12000
C2022       C  0.67376206  0.82648343  0.64787504     0.22900
C2023       C  0.65172121  0.82697961  0.70011128    -0.51900
C2024       C  0.67503167  0.81613483  0.68277957     0.12100
C2025       C  0.64885460  0.87232888  0.66643659    -0.51400
C2026       C  0.67198290  0.86165057  0.64898203     0.12700
H2027       H  0.59544755  0.82349651  0.64829280     0.17200
H2028       H  0.69264424  0.81788507  0.63354959     0.02900
H2029       H  0.64956849  0.82232456  0.72511576     0.17500
H2030       H  0.64479366  0.89653540  0.66974716     0.17300
C2031       C  0.61994052  0.56723804  0.59972386     0.89100
C2032       C  0.60001758  0.58030084  0.62524541    -0.51200
C2033       C  0.57742411  0.59858970  0.61388740     0.12000
C2034       C  0.57677195  0.60194736  0.57776349     0.22900
C2035       C  0.59844448  0.55070010  0.57762934    -0.51900
C2036       C  0.57574234  0.56864542  0.56607042     0.12100
C2037       C  0.63138454  0.59501786  0.58100794    -0.51400
C2038       C  0.60887078  0.61333466  0.56955089     0.12700
H2039       H  0.60341997  0.57548394  0.65010657     0.17200
H2040       H  0.55827980  0.61674077  0.56849938     0.02900
H2041       H  0.60061592  0.52667594  0.57209343     0.17500
H2042       H  0.65512670  0.60003947  0.57759390     0.17300
O2043       O  0.60270971  0.79151102  0.97580773    -0.70400
O2044       O  0.60008770  0.70927718  0.51685937    -0.71400
O2045       O  0.60302131  0.77006139  0.53927287    -0.60000
O2046       O  0.60323032  0.73023028  0.95334775    -0.68400
O2047       O  0.65326760  0.72979789  0.95577800    -0.67900
O2048       O  0.65307139  0.76811577  0.53923730    -0.59200
O2049       O  0.65009207  0.70680092  0.51858768    -0.71700
O2050       O  0.65277440  0.79159982  0.97661140    -0.70500
Cu2051     Cu  0.60048916  0.75032983  0.49622737     1.04600
Cu2052     Cu  0.65405523  0.74903969  0.49754137     1.04300
C2053       C  0.62761182  0.80478338  0.97000765     0.95800
C2054       C  0.62415488  0.69507397  0.52434279     0.95000
C2055       C  0.62857034  0.77507685  0.55254114     0.87100
C2056       C  0.62883789  0.72364679  0.94143988     0.93400
C2057       C  0.97803213  0.97449740  0.52359101     0.89100
C2058       C  0.00027384  0.95594318  0.50433661    -0.51200
C2059       C  0.51759798  0.97334858  0.98468426     0.12000
C2060       C  0.51098204  0.50805049  0.98609685     0.22900
C2061       C  0.99741704  0.99814015  0.54061746    -0.51900
C2062       C  0.51457451  0.51584768  0.52106756     0.12100
C2063       C  0.95956050  0.99318209  0.49943198    -0.51400
C2064       C  0.97673632  0.51088712  0.97982544     0.12700
H2065       H  0.50229720  0.93123660  0.50623983     0.17200
H2066       H  0.52507844  0.52237257  0.97020903     0.02900
H2067       H  0.49756842  0.00065071  0.56592586     0.17500
H2068       H  0.93506031  0.99323253  0.49864137     0.17300
C2069       C  0.78033207  0.77367587  0.77519665     0.89100
C2070       C  0.75960288  0.79148122  0.75230238    -0.51200
C2071       C  0.74205441  0.77327914  0.73390409     0.12000
C2072       C  0.74703472  0.73874536  0.74008591     0.22900
C2073       C  0.75905427  0.75261016  0.79388700    -0.51900
C2074       C  0.74149272  0.73437678  0.77558937     0.12100
C2075       C  0.79868160  0.75230680  0.75464348    -0.51400
C2076       C  0.78139116  0.73394262  0.73624803     0.12700
H2077       H  0.75837865  0.81628539  0.75130052     0.17200
H2078       H  0.73282738  0.72383966  0.72518932     0.02900
H2079       H  0.75760501  0.75255102  0.81930819     0.17500
H2080       H  0.82318567  0.75158516  0.75481198     0.17300
C2081       C  0.61542735  0.64162502  0.55284044    -0.10700
C2082       C  0.62117064  0.66561754  0.53966699    -0.12300
C2083       C  0.55233720  0.55545861  0.54664206    -0.10700
C2084       C  0.53466127  0.53910940  0.53311052    -0.12300
C2085       C  0.63607645  0.80090789  0.60750135    -0.10700
C2086       C  0.63070084  0.78888290  0.58280732    -0.12300
C2087       C  0.71922502  0.78596696  0.71264198    -0.10700
C2088       C  0.69955213  0.79870534  0.69733079    -0.12300
C2089       C  0.62643559  0.83508357  0.95604644    -0.10700
C2090       C  0.62193132  0.86009626  0.94428510    -0.12300
C2091       C  0.54042786  0.95970620  0.96511965    -0.10700
C2092       C  0.55958768  0.94744703  0.94960687    -0.12300
C2093       C  0.63651972  0.69520036  0.88791723    -0.10700
C2094       C  0.63108603  0.70863601  0.91175622    -0.12300
C2095       C  0.69925843  0.69823603  0.80059546    -0.10700
C2096       C  0.71864131  0.71420012  0.78882638    -0.12300
C2097       C  0.60454678  0.85922568  0.69943639    -0.10700
C2098       C  0.58244596  0.86714000  0.71331685    -0.12300
C2099       C  0.56514471  0.89065759  0.86185694    -0.10700
C2100       C  0.54897429  0.88237203  0.84071986    -0.12300
C2101       C  0.95871700  0.87134442  0.67430324    -0.10700
C2102       C  0.94345930  0.87874900  0.65188994    -0.12300
C2103       C  0.94344926  0.94154947  0.56304565    -0.10700
C2104       C  0.95944938  0.95566102  0.54504584    -0.12300
C2105       C  0.92202511  0.87460899  0.80316969    -0.10700
C2106       C  0.89868042  0.87048927  0.81690354    -0.12300
C2107       C  0.79905301  0.79354520  0.79524829    -0.10700
C2108       C  0.81286992  0.81076325  0.81208111    -0.12300
C2109       C  0.88089498  0.83171011  0.55343474    -0.10700
C2110       C  0.88561944  0.85477096  0.56761586    -0.12300
C2111       C  0.87967350  0.79807221  0.92416134    -0.10700
C2112       C  0.87190161  0.81376620  0.90192762    -0.12300
C2113       C  0.87253851  0.70253183  0.58980209    -0.10700
C2114       C  0.86340960  0.68616530  0.61081162    -0.12300
C2115       C  0.80647401  0.69253930  0.69956745    -0.10700
C2116       C  0.79478120  0.71154959  0.71584031    -0.12300
C2117       C  0.69302883  0.88274540  0.63479064    -0.10700
C2118       C  0.70767324  0.90518251  0.62829971    -0.12300
C2119       C  0.82926339  0.95292326  0.63596911    -0.10700
C2120       C  0.85297770  0.94110969  0.63050801    -0.12300
C2121       C  0.66531586  0.53185120  0.61917948    -0.10700
C2122       C  0.64409007  0.54754328  0.61186395    -0.12300
C2123       C  0.78484345  0.57384496  0.63356391    -0.10700
C2124       C  0.79844062  0.59708096  0.63882307    -0.12300
C2125       C  0.79689377  0.92833478  0.87997624    -0.10700
C2126       C  0.80992216  0.90481049  0.87511593    -0.12300
C2127       C  0.65391208  0.95468078  0.88833531    -0.10700
C2128       C  0.67602772  0.96958203  0.88212454    -0.12300
C2129       C  0.71428499  0.59392064  0.86957295    -0.10700
C2130       C  0.69720988  0.61433539  0.86218252    -0.12300
C2131       C  0.89289217  0.64981138  0.94635153    -0.10700
C2132       C  0.88539460  0.67173639  0.96098824    -0.12300
C2133       C  0.86447270  0.56274342  0.88189681    -0.10700
C2134       C  0.84137947  0.54978515  0.87513881    -0.12300
C2135       C  0.94974791  0.55217758  0.94274584    -0.10700
C2136       C  0.96317358  0.53279718  0.95796824    -0.12300
C2137       C  0.91621867  0.62364999  0.70374360    -0.10700
C2138       C  0.89149424  0.62865280  0.69280229    -0.12300
C2139       C  0.60627952  0.63369306  0.79690998    -0.10700
C2140       C  0.58352447  0.62601263  0.78345640    -0.12300
C2141       C  0.55631425  0.61246048  0.63501517    -0.10700
C2142       C  0.54104785  0.61963322  0.65703859    -0.12300
C2143       C  0.96120673  0.61848210  0.82862360    -0.10700
C2144       C  0.94850171  0.61469446  0.85332299    -0.12300
loop_ 
_geom_bond_atom_site_label_1 
_geom_bond_atom_site_label_2 
_geom_bond_distance 
_geom_bond_site_symmetry_2 
_ccdc_geom_bond_type 
O1           C11   1.282       .  A
O1        Cu1081   2.038       .  S
O2           C12   1.281       .  A
O2           Cu9   2.040       .  S
O3           C13   1.273       .  A
O3        Cu1081   1.992       .  S
O4           C14   1.273       .  A
O4           Cu9   1.993       .  S
O5           C14   1.281       .  A
O5        Cu1082   2.039       .  S
O6           C13   1.281       .  A
O6          Cu10   2.037       .  S
O7           C12   1.271       .  A
O7        Cu1082   1.982       .  S
O8           C11   1.271       .  A
O8          Cu10   1.982       .  S
Cu9        O1073   2.038   1_455  S
Cu9        O1075   1.992   1_455  S
Cu9       Cu1082   2.378       .  S
Cu10       O1077   2.039       .  S
Cu10       O1079   1.982       .  S
Cu10      Cu1081   2.378       .  S
C11         C261   1.436       .  S
C12         C264   1.436       .  S
C13         C267   1.439       .  S
C14         C266   1.441       .  S
C15          C16   1.523       .  S
C15          C21   1.533       .  S
C15          C19   1.533       .  S
C15         C255   1.464       .  S
C16          H23   1.087       .  S
C16          C17   1.359       .  D
C17          C18   1.543       .  S
C17         C257   1.441       .  S
C18          C22   1.545       .  S
C18          C20   1.547       .  S
C18          H24   1.111       .  S
C19          H25   1.088       .  S
C19          C20   1.365       .  D
C20         C259   1.452       .  S
C21          H26   1.087       .  S
C21          C22   1.364       .  D
C22         C268   1.445       .  S
O27          C37   1.275       .  A
O27         Cu35   1.997       .  S
O28          C38   1.273       .  A
O28        Cu571   1.987       .  S
O29          C39   1.279       .  A
O29        Cu571   2.026       .  S
O30          C40   1.279       .  A
O30         Cu35   2.028       .  S
O31          C40   1.274       .  A
O31         Cu36   1.993       .  S
O32          C39   1.274       .  A
O32        Cu572   1.992       .  S
O33          C38   1.278       .  A
O33        Cu572   2.021       .  S
O34          C37   1.279       .  A
O34         Cu36   2.028       .  S
Cu35        O564   1.987   1_545  S
Cu35        O565   2.026   1_545  S
Cu35        Cu36   2.380       .  S
Cu36        O568   1.992   1_545  S
Cu36        O569   2.021   1_545  S
C37         C253   1.438       .  S
C38         C249   1.430       .  S
C39         C252   1.435       .  S
C40         C258   1.435       .  S
O41          C51   1.275       .  A
O41        Cu585   1.995   1_545  S
O42          C52   1.275       .  A
O42         Cu49   1.998       .  S
O43          C53   1.277       .  A
O43         Cu49   2.012       .  S
O44          C54   1.277       .  A
O44        Cu585   2.014   1_545  S
O45          C54   1.273       .  A
O45        Cu586   1.983   1_545  S
O46          C53   1.272       .  A
O46         Cu50   1.977       .  S
O47          C52   1.278       .  A
O47         Cu50   2.027       .  S
O48          C51   1.278       .  A
O48        Cu586   2.022   1_545  S
Cu49        O577   1.995       .  S
Cu49        O580   2.014       .  S
Cu49        Cu50   2.382       .  S
Cu50        O581   1.983       .  S
Cu50        O584   2.022       .  S
C51         C247   1.434       .  S
C52         C242   1.436       .  S
C53         C243   1.422       .  S
C54         C245   1.426       .  S
C55          C56   1.532       .  S
C55          C61   1.530       .  S
C55          C59   1.534       .  S
C55         C248   1.468       .  S
C56          H63   1.087       .  S
C56          C57   1.364       .  D
C57          C58   1.549       .  S
C57         C239   1.453       .  S
C58          C62   1.544       .  S
C58          C60   1.541       .  S
C58          H64   1.111       .  S
C59          H65   1.087       .  S
C59          C60   1.367       .  D
C60         C238   1.448       .  S
C61          H66   1.086       .  S
C61          C62   1.360       .  D
C62         C262   1.443       .  S
O67          C77   1.270       .  A
O67        Cu343   1.970       .  S
O68          C78   1.270       .  A
O68         Cu75   1.975       .  S
O69          C79   1.283       .  A
O69         Cu75   2.049       .  S
O70          C80   1.283       .  A
O70        Cu343   2.048       .  S
O71          C80   1.271       .  A
O71        Cu344   1.981       .  S
O72          C79   1.271       .  A
O72         Cu76   1.983       .  S
O73          C78   1.281       .  A
O73         Cu76   2.034       .  S
O74          C77   1.281       .  A
O74        Cu344   2.032       .  S
Cu75        O335   1.970   1_554  S
Cu75        O338   2.048   1_554  S
Cu75        Cu76   2.379       .  S
Cu76        O339   1.981   1_554  S
Cu76        O342   2.032   1_554  S
C77         C256   1.429       .  S
C78         C233   1.431       .  S
C79         C237   1.440       .  S
C80         C235   1.439       .  S
C81          C82   1.530       .  S
C81          C87   1.529       .  S
C81          C85   1.532       .  S
C81         C250   1.464       .  S
C82          H89   1.086       .  S
C82          C83   1.360       .  D
C83          C84   1.544       .  S
C83         C230   1.442       .  S
C84          C88   1.545       .  S
C84          C86   1.548       .  S
C84          H90   1.111       .  S
C85          H91   1.086       .  S
C85          C86   1.364       .  D
C86         C232   1.453       .  S
C87          H92   1.087       .  S
C87          C88   1.364       .  D
C88         C236   1.447       .  S
C93          C94   1.524       .  S
C93          C99   1.528       .  S
C93          C97   1.532       .  S
C93         C244   1.456       .  S
C94         H101   1.087       .  S
C94          C95   1.362       .  D
C95          C96   1.545       .  S
C95         C226   1.442       .  S
C96         C100   1.543       .  S
C96          C98   1.547       .  S
C96         H102   1.111       .  S
C97         H103   1.087       .  S
C97          C98   1.365       .  D
C98         C227   1.449       .  S
C99         H104   1.087       .  S
C99         C100   1.358       .  D
C100        C234   1.438       .  S
O105        C115   1.281       .  A
O105      Cu1185   2.036       .  S
O106        C116   1.280       .  A
O106       Cu113   2.032       .  S
O107        C117   1.272       .  A
O107      Cu1185   1.983       .  S
O108        C118   1.273       .  A
O108       Cu113   1.987       .  S
O109        C118   1.281       .  A
O109       Cu114   2.039       .  S
O110        C117   1.281       .  A
O110      Cu1186   2.039       .  S
O111        C116   1.271       .  A
O111       Cu114   1.976       .  S
O112        C115   1.271       .  A
O112      Cu1186   1.982       .  S
Cu113      O1177   2.036   1_455  S
Cu113      O1179   1.983   1_455  S
Cu113      Cu114   2.379       .  S
Cu114      O1182   2.039   1_455  S
Cu114      O1184   1.982   1_455  S
C115        C229   1.435       .  S
C116        C222   1.430       .  S
C117        C225   1.436       .  S
C118        C224   1.439       .  S
C119        C120   1.531       .  S
C119        C125   1.529       .  S
C119        C123   1.538       .  S
C119        C263   1.471       .  S
C120        H127   1.087       .  S
C120        C121   1.361       .  D
C121        C122   1.548       .  S
C121        C217   1.449       .  S
C122        C126   1.542       .  S
C122        C124   1.546       .  S
C122        H128   1.111       .  S
C123        H129   1.086       .  S
C123        C124   1.368       .  D
C124        C219   1.455       .  S
C125        H130   1.087       .  S
C125        C126   1.364       .  D
C126        C254   1.444       .  S
C131        C132   1.532       .  S
C131        C137   1.533       .  S
C131        C135   1.532       .  S
C131        C251   1.469       .  S
C132        H139   1.088       .  S
C132        C133   1.365       .  D
C133        C134   1.541       .  S
C133        C223   1.446       .  S
C134        C138   1.548       .  S
C134        C136   1.550       .  S
C134        H140   1.111       .  S
C135        H141   1.087       .  S
C135        C136   1.363       .  D
C136        C216   1.453       .  S
C137        H142   1.086       .  S
C137        C138   1.363       .  D
C138        C214   1.452       .  S
C143        C144   1.529       .  S
C143        C149   1.525       .  S
C143        C147   1.535       .  S
C143        C221   1.465       .  S
C144        H151   1.087       .  S
C144        C145   1.361       .  D
C145        C146   1.549       .  S
C145        C209   1.446       .  S
C146        C150   1.543       .  S
C146        C148   1.550       .  S
C146        H152   1.111       .  S
C147        H153   1.088       .  S
C147        C148   1.367       .  D
C148        C212   1.457       .  S
C149        H154   1.087       .  S
C149        C150   1.361       .  D
C150        C241   1.442       .  S
C155        C156   1.528       .  S
C155        C161   1.531       .  S
C155        C159   1.527       .  S
C155        C246   1.461       .  S
C156        H163   1.087       .  S
C156        C157   1.363       .  D
C157        C158   1.546       .  S
C157        C265   1.447       .  S
C158        C162   1.549       .  S
C158        C160   1.550       .  S
C158        H164   1.111       .  S
C159        H165   1.087       .  S
C159        C160   1.361       .  D
C160        C207   1.449       .  S
C161        H166   1.086       .  S
C161        C162   1.363       .  D
C162        C205   1.448       .  S
O167        C177   1.272       .  A
O167       Cu443   1.990       .  S
O168        C178   1.271       .  A
O168       Cu175   1.987   1_554  S
O169        C179   1.283       .  A
O169       Cu175   2.046   1_554  S
O170        C180   1.283       .  A
O170       Cu443   2.050       .  S
O171        C180   1.271       .  A
O171       Cu444   1.985       .  S
O172        C179   1.270       .  A
O172       Cu176   1.980   1_554  S
O173        C178   1.283       .  A
O173       Cu176   2.049   1_554  S
O174        C177   1.284       .  A
O174       Cu444   2.052       .  S
Cu175       O435   1.990       .  S
Cu175       O438   2.050       .  S
Cu175      Cu176   2.377       .  S
Cu176       O439   1.985       .  S
Cu176       O442   2.052       .  S
C177        C213   1.445       .  S
C178        C206   1.442       .  S
C179        C210   1.438       .  S
C180        C218   1.442       .  S
C181        C182   1.532       .  S
C181        C187   1.536   1_554  S
C181        C185   1.534       .  S
C181        C228   1.477       .  S
C182       H1261   1.087       .  S
C182       C1523   1.364   1_554  D
C183        C720   1.550       .  S
C183       C1522   1.364       .  D
C183        C215   1.454       .  S
C184        C719   1.550   1_545  S
C184       C1260   1.545   1_455  S
C184        C454   1.544       .  S
C184        H190   1.111       .  S
C185       H1263   1.088       .  S
C185       C1794   1.365       .  D
C186        C452   1.544   1_554  S
C186       C1793   1.365   1_445  D
C186        C208   1.451       .  S
C187        H192   1.087       .  S
C187        C992   1.367       .  D
C188       C1256   1.545       .  S
C188        C991   1.367   1_545  D
C188        C260   1.453       .  S
H189       C1254   1.087       .  S
H191       C1257   1.088       .  S
C193        C194   1.538       .  S
C193        C199   1.533       .  S
C193        C197   1.537       .  S
C193        C231   1.481       .  S
C194        H201   1.087       .  S
C194        C195   1.367       .  D
C195        C196   1.545       .  S
C195        C211   1.457       .  S
C196        C200   1.549       .  S
C196        C198   1.545       .  S
C196        H202   1.111       .  S
C197        H203   1.087       .  S
C197        C198   1.366       .  D
C198        C220   1.455       .  S
C199        H204   1.087       .  S
C199        C200   1.365       .  D
C200        C240   1.454       .  S
C205        C206   1.210       .  T
C207        C208   1.211       .  T
C209        C210   1.208       .  T
C211        C212   1.215       .  T
C213        C214   1.212       .  T
C215        C216   1.213       .  T
C217        C218   1.211       .  T
C219        C220   1.214       .  T
C221        C222   1.204       .  T
C223        C224   1.208       .  T
C225        C226   1.207       .  T
C227        C228   1.211       .  T
C229        C230   1.206       .  T
C231        C232   1.213       .  T
C233        C234   1.204       .  T
C235        C236   1.209       .  T
C237        C238   1.210       .  T
C239        C240   1.213       .  T
C241        C242   1.206       .  T
C243        C244   1.199       .  T
C245        C246   1.202       .  T
C247        C248   1.206       .  T
C249        C250   1.203       .  T
C251        C252   1.206       .  T
C253        C254   1.208       .  T
C255        C256   1.203       .  T
C257        C258   1.206       .  T
C259        C260   1.213       .  T
C261        C262   1.207       .  T
C263        C264   1.207       .  T
C265        C266   1.209       .  T
C267        C268   1.208       .  T
O269        C279   1.282       .  A
O269      Cu1349   2.038       .  S
O270        C280   1.281       .  A
O270       Cu277   2.040       .  S
O271        C281   1.273       .  A
O271      Cu1349   1.992       .  S
O272        C282   1.273       .  A
O272       Cu277   1.993       .  S
O273        C282   1.281       .  A
O273      Cu1350   2.039       .  S
O274        C281   1.281       .  A
O274       Cu278   2.037       .  S
O275        C280   1.271       .  A
O275      Cu1350   1.982       .  S
O276        C279   1.271       .  A
O276       Cu278   1.982       .  S
Cu277      O1341   2.038   1_455  S
Cu277      O1343   1.992   1_455  S
Cu277     Cu1350   2.378       .  S
Cu278      O1345   2.039       .  S
Cu278      O1347   1.982       .  S
Cu278     Cu1349   2.378       .  S
C279        C529   1.436       .  S
C280        C532   1.436       .  S
C281        C535   1.439       .  S
C282        C534   1.441       .  S
C283        C284   1.523       .  S
C283        C289   1.533       .  S
C283        C287   1.533       .  S
C283        C523   1.464       .  S
C284        H291   1.087       .  S
C284        C285   1.359       .  D
C285        C286   1.543       .  S
C285        C525   1.441       .  S
C286        C290   1.545       .  S
C286        C288   1.547       .  S
C286        H292   1.111       .  S
C287        H293   1.088       .  S
C287        C288   1.366       .  D
C288        C527   1.452       .  S
C289        H294   1.087       .  S
C289        C290   1.364       .  D
C290        C536   1.445       .  S
O295        C305   1.275       .  A
O295       Cu303   1.997       .  S
O296        C306   1.273       .  A
O296       Cu839   1.987       .  S
O297        C307   1.279       .  A
O297       Cu839   2.026       .  S
O298        C308   1.279       .  A
O298       Cu303   2.028       .  S
O299        C308   1.274       .  A
O299       Cu304   1.993       .  S
O300        C307   1.274       .  A
O300       Cu840   1.992       .  S
O301        C306   1.278       .  A
O301       Cu840   2.021       .  S
O302        C305   1.279       .  A
O302       Cu304   2.028       .  S
Cu303       O832   1.987   1_545  S
Cu303       O833   2.026   1_545  S
Cu303      Cu304   2.380       .  S
Cu304       O836   1.992   1_545  S
Cu304       O837   2.021   1_545  S
C305        C521   1.438       .  S
C306        C517   1.430       .  S
C307        C520   1.435       .  S
C308        C526   1.435       .  S
O309        C319   1.275       .  A
O309       Cu853   1.995   1_545  S
O310        C320   1.275       .  A
O310       Cu317   1.998       .  S
O311        C321   1.277       .  A
O311       Cu317   2.012       .  S
O312        C322   1.277       .  A
O312       Cu853   2.014   1_545  S
O313        C322   1.273       .  A
O313       Cu854   1.983   1_545  S
O314        C321   1.272       .  A
O314       Cu318   1.977       .  S
O315        C320   1.278       .  A
O315       Cu318   2.027       .  S
O316        C319   1.278       .  A
O316       Cu854   2.022   1_545  S
Cu317       O845   1.995       .  S
Cu317       O848   2.014       .  S
Cu317      Cu318   2.382       .  S
Cu318       O849   1.983       .  S
Cu318       O852   2.022       .  S
C319        C515   1.434       .  S
C320        C510   1.436       .  S
C321        C511   1.422       .  S
C322        C513   1.426       .  S
C323        C324   1.532       .  S
C323        C329   1.530       .  S
C323        C327   1.534       .  S
C323        C516   1.468       .  S
C324        H331   1.087       .  S
C324        C325   1.364       .  D
C325        C326   1.549       .  S
C325        C507   1.453       .  S
C326        C330   1.544       .  S
C326        C328   1.541       .  S
C326        H332   1.111       .  S
C327        H333   1.087       .  S
C327        C328   1.367       .  D
C328        C506   1.448       .  S
C329        H334   1.086       .  S
C329        C330   1.360       .  D
C330        C530   1.443       .  S
O335        C345   1.270       .  A
O336        C346   1.270       .  A
O336       Cu343   1.975       .  S
O337        C347   1.283       .  A
O337       Cu343   2.049       .  S
O338        C348   1.283       .  A
O339        C348   1.271       .  A
O340        C347   1.271       .  A
O340       Cu344   1.983       .  S
O341        C346   1.281       .  A
O341       Cu344   2.034       .  S
O342        C345   1.281       .  A
Cu343      Cu344   2.379       .  S
C345        C524   1.429       .  S
C346        C501   1.431       .  S
C347        C505   1.440       .  S
C348        C503   1.439       .  S
C349        C350   1.530       .  S
C349        C355   1.529       .  S
C349        C353   1.532       .  S
C349        C518   1.464       .  S
C350        H357   1.086       .  S
C350        C351   1.360       .  D
C351        C352   1.544       .  S
C351        C498   1.442       .  S
C352        C356   1.545       .  S
C352        C354   1.548       .  S
C352        H358   1.111       .  S
C353        H359   1.086       .  S
C353        C354   1.364       .  D
C354        C500   1.453       .  S
C355        H360   1.087       .  S
C355        C356   1.364       .  D
C356        C504   1.447       .  S
C361        C362   1.524       .  S
C361        C367   1.528       .  S
C361        C365   1.532       .  S
C361        C512   1.456       .  S
C362        H369   1.087       .  S
C362        C363   1.362       .  D
C363        C364   1.545       .  S
C363        C494   1.442       .  S
C364        C368   1.543       .  S
C364        C366   1.547       .  S
C364        H370   1.111       .  S
C365        H371   1.087       .  S
C365        C366   1.365       .  D
C366        C495   1.449       .  S
C367        H372   1.087       .  S
C367        C368   1.358       .  D
C368        C502   1.438       .  S
O373        C383   1.281       .  A
O373      Cu1453   2.036       .  S
O374        C384   1.280       .  A
O374       Cu381   2.032       .  S
O375        C385   1.272       .  A
O375      Cu1453   1.983       .  S
O376        C386   1.273       .  A
O376       Cu381   1.987       .  S
O377        C386   1.281       .  A
O377       Cu382   2.039       .  S
O378        C385   1.281       .  A
O378      Cu1454   2.039       .  S
O379        C384   1.271       .  A
O379       Cu382   1.976       .  S
O380        C383   1.271       .  A
O380      Cu1454   1.982       .  S
Cu381      O1445   2.036   1_455  S
Cu381      O1447   1.983   1_455  S
Cu381      Cu382   2.379       .  S
Cu382      O1450   2.039   1_455  S
Cu382      O1452   1.982   1_455  S
C383        C497   1.435       .  S
C384        C490   1.430       .  S
C385        C493   1.436       .  S
C386        C492   1.439       .  S
C387        C388   1.531       .  S
C387        C393   1.529       .  S
C387        C391   1.538       .  S
C387        C531   1.471       .  S
C388        H395   1.087       .  S
C388        C389   1.361       .  D
C389        C390   1.548       .  S
C389        C485   1.449       .  S
C390        C394   1.542       .  S
C390        C392   1.546       .  S
C390        H396   1.111       .  S
C391        H397   1.086       .  S
C391        C392   1.368       .  D
C392        C487   1.455       .  S
C393        H398   1.087       .  S
C393        C394   1.364       .  D
C394        C522   1.444       .  S
C399        C400   1.532       .  S
C399        C405   1.533       .  S
C399        C403   1.532       .  S
C399        C519   1.469       .  S
C400        H407   1.088       .  S
C400        C401   1.365       .  D
C401        C402   1.541       .  S
C401        C491   1.446       .  S
C402        C406   1.548       .  S
C402        C404   1.550       .  S
C402        H408   1.111       .  S
C403        H409   1.087       .  S
C403        C404   1.363       .  D
C404        C484   1.453       .  S
C405        H410   1.086       .  S
C405        C406   1.363       .  D
C406        C482   1.452       .  S
C411        C412   1.529       .  S
C411        C417   1.525       .  S
C411        C415   1.535       .  S
C411        C489   1.465       .  S
C412        H419   1.087       .  S
C412        C413   1.361       .  D
C413        C414   1.549       .  S
C413        C477   1.446       .  S
C414        C418   1.543       .  S
C414        C416   1.550       .  S
C414        H420   1.111       .  S
C415        H421   1.088       .  S
C415        C416   1.367       .  D
C416        C480   1.457       .  S
C417        H422   1.087       .  S
C417        C418   1.361       .  D
C418        C509   1.442       .  S
C423        C424   1.528       .  S
C423        C429   1.531       .  S
C423        C427   1.527       .  S
C423        C514   1.461       .  S
C424        H431   1.087       .  S
C424        C425   1.363       .  D
C425        C426   1.546       .  S
C425        C533   1.447       .  S
C426        C430   1.549       .  S
C426        C428   1.550       .  S
C426        H432   1.111       .  S
C427        H433   1.087       .  S
C427        C428   1.361       .  D
C428        C475   1.449       .  S
C429        H434   1.086       .  S
C429        C430   1.363       .  D
C430        C473   1.448       .  S
O435        C445   1.272       .  A
O436        C446   1.271       .  A
O436       Cu443   1.987       .  S
O437        C447   1.283       .  A
O437       Cu443   2.046       .  S
O438        C448   1.283       .  A
O439        C448   1.271       .  A
O440        C447   1.270       .  A
O440       Cu444   1.980       .  S
O441        C446   1.283       .  A
O441       Cu444   2.049       .  S
O442        C445   1.284       .  A
Cu443      Cu444   2.377       .  S
C445        C481   1.445       .  S
C446        C474   1.442       .  S
C447        C478   1.438       .  S
C448        C486   1.442       .  S
C449        C450   1.532       .  S
C449        C455   1.536       .  S
C449        C453   1.534       .  S
C449        C496   1.477       .  S
C450       H1529   1.087       .  S
C450       C1255   1.364       .  D
C451        C988   1.550       .  S
C451       C1254   1.364   1_556  D
C451        C483   1.454       .  S
C452        C987   1.550   1_545  S
C452       C1528   1.545   1_455  S
C452        H458   1.111       .  S
C453       H1531   1.088       .  S
C453       C2062   1.365       .  D
C454       C2061   1.365   1_445  D
C454        C476   1.451       .  S
C455        H460   1.087       .  S
C455        C724   1.367       .  D
C456       C1524   1.545       .  S
C456        C723   1.367   1_545  D
C456        C528   1.453       .  S
H457       C1522   1.087       .  S
H459       C1525   1.088       .  S
C461        C462   1.538       .  S
C461        C467   1.533       .  S
C461        C465   1.537       .  S
C461        C499   1.481       .  S
C462        H469   1.087       .  S
C462        C463   1.367       .  D
C463        C464   1.545       .  S
C463        C479   1.457       .  S
C464        C468   1.549       .  S
C464        C466   1.545       .  S
C464        H470   1.111       .  S
C465        H471   1.087       .  S
C465        C466   1.366       .  D
C466        C488   1.455       .  S
C467        H472   1.087       .  S
C467        C468   1.365       .  D
C468        C508   1.454       .  S
C473        C474   1.210       .  T
C475        C476   1.211       .  T
C477        C478   1.208       .  T
C479        C480   1.215       .  T
C481        C482   1.212       .  T
C483        C484   1.213       .  T
C485        C486   1.211       .  T
C487        C488   1.214       .  T
C489        C490   1.204       .  T
C491        C492   1.208       .  T
C493        C494   1.207       .  T
C495        C496   1.211       .  T
C497        C498   1.206       .  T
C499        C500   1.213       .  T
C501        C502   1.204       .  T
C503        C504   1.209       .  T
C505        C506   1.210       .  T
C507        C508   1.213       .  T
C509        C510   1.206       .  T
C511        C512   1.199       .  T
C513        C514   1.202       .  T
C515        C516   1.206       .  T
C517        C518   1.203       .  T
C519        C520   1.206       .  T
C521        C522   1.208       .  T
C523        C524   1.203       .  T
C525        C526   1.206       .  T
C527        C528   1.213       .  T
C529        C530   1.207       .  T
C531        C532   1.207       .  T
C533        C534   1.209       .  T
C535        C536   1.208       .  T
O537        C547   1.282       .  A
O537      Cu1617   2.038       .  S
O538        C548   1.281       .  A
O538       Cu545   2.040       .  S
O539        C549   1.273       .  A
O539      Cu1617   1.992       .  S
O540        C550   1.273       .  A
O540       Cu545   1.993       .  S
O541        C550   1.281       .  A
O541      Cu1618   2.039       .  S
O542        C549   1.281       .  A
O542       Cu546   2.037       .  S
O543        C548   1.271       .  A
O543      Cu1618   1.982       .  S
O544        C547   1.271       .  A
O544       Cu546   1.982       .  S
Cu545      O1609   2.038   1_455  S
Cu545      O1611   1.992   1_455  S
Cu545     Cu1618   2.378       .  S
Cu546      O1613   2.039       .  S
Cu546      O1615   1.982       .  S
Cu546     Cu1617   2.378       .  S
C547        C797   1.436       .  S
C548        C800   1.436       .  S
C549        C803   1.439       .  S
C550        C802   1.441       .  S
C551        C552   1.523       .  S
C551        C557   1.533       .  S
C551        C555   1.533       .  S
C551        C791   1.464       .  S
C552        H559   1.087       .  S
C552        C553   1.359       .  D
C553        C554   1.543       .  S
C553        C793   1.441       .  S
C554        C558   1.545       .  S
C554        C556   1.547       .  S
C554        H560   1.111       .  S
C555        H561   1.088       .  S
C555        C556   1.365       .  D
C556        C795   1.452       .  S
C557        H562   1.087       .  S
C557        C558   1.364       .  D
C558        C804   1.445       .  S
O563        C573   1.275       .  A
O563       Cu571   1.997       .  S
O564        C574   1.273       .  A
O565        C575   1.279       .  A
O566        C576   1.279       .  A
O566       Cu571   2.028       .  S
O567        C576   1.274       .  A
O567       Cu572   1.993       .  S
O568        C575   1.274       .  A
O569        C574   1.278       .  A
O570        C573   1.279       .  A
O570       Cu572   2.028       .  S
Cu571      Cu572   2.380       .  S
C573        C789   1.438       .  S
C574        C785   1.430       .  S
C575        C788   1.435       .  S
C576        C794   1.435       .  S
O577        C587   1.275       .  A
O578        C588   1.275       .  A
O578       Cu585   1.998       .  S
O579        C589   1.277       .  A
O579       Cu585   2.012       .  S
O580        C590   1.277       .  A
O581        C590   1.273       .  A
O582        C589   1.272       .  A
O582       Cu586   1.977       .  S
O583        C588   1.278       .  A
O583       Cu586   2.027       .  S
O584        C587   1.278       .  A
Cu585      Cu586   2.382       .  S
C587        C783   1.434       .  S
C588        C778   1.436       .  S
C589        C779   1.422       .  S
C590        C781   1.426       .  S
C591        C592   1.532       .  S
C591        C597   1.530       .  S
C591        C595   1.534       .  S
C591        C784   1.468       .  S
C592        H599   1.087       .  S
C592        C593   1.364       .  D
C593        C594   1.549       .  S
C593        C775   1.453       .  S
C594        C598   1.544       .  S
C594        C596   1.541       .  S
C594        H600   1.111       .  S
C595        H601   1.087       .  S
C595        C596   1.367       .  D
C596        C774   1.448       .  S
C597        H602   1.086       .  S
C597        C598   1.360       .  D
C598        C798   1.443       .  S
O603        C613   1.270       .  A
O603       Cu879   1.970       .  S
O604        C614   1.270       .  A
O604       Cu611   1.975       .  S
O605        C615   1.283       .  A
O605       Cu611   2.049       .  S
O606        C616   1.283       .  A
O606       Cu879   2.048       .  S
O607        C616   1.271       .  A
O607       Cu880   1.981       .  S
O608        C615   1.271       .  A
O608       Cu612   1.983       .  S
O609        C614   1.281       .  A
O609       Cu612   2.034       .  S
O610        C613   1.281       .  A
O610       Cu880   2.032       .  S
Cu611       O871   1.970   1_554  S
Cu611       O874   2.048   1_554  S
Cu611      Cu612   2.379       .  S
Cu612       O875   1.981   1_554  S
Cu612       O878   2.032   1_554  S
C613        C792   1.429       .  S
C614        C769   1.431       .  S
C615        C773   1.440       .  S
C616        C771   1.439       .  S
C617        C618   1.530       .  S
C617        C623   1.529       .  S
C617        C621   1.532       .  S
C617        C786   1.464       .  S
C618        H625   1.086       .  S
C618        C619   1.360       .  D
C619        C620   1.544       .  S
C619        C766   1.442       .  S
C620        C624   1.545       .  S
C620        C622   1.548       .  S
C620        H626   1.111       .  S
C621        H627   1.086       .  S
C621        C622   1.364       .  D
C622        C768   1.453       .  S
C623        H628   1.087       .  S
C623        C624   1.364       .  D
C624        C772   1.447       .  S
C629        C630   1.524       .  S
C629        C635   1.528       .  S
C629        C633   1.532       .  S
C629        C780   1.456       .  S
C630        H637   1.087       .  S
C630        C631   1.362       .  D
C631        C632   1.545       .  S
C631        C762   1.442       .  S
C632        C636   1.543       .  S
C632        C634   1.547       .  S
C632        H638   1.111       .  S
C633        H639   1.087       .  S
C633        C634   1.365       .  D
C634        C763   1.449       .  S
C635        H640   1.087       .  S
C635        C636   1.358       .  D
C636        C770   1.438       .  S
O641        C651   1.281       .  A
O641      Cu1721   2.036       .  S
O642        C652   1.280       .  A
O642       Cu649   2.032       .  S
O643        C653   1.272       .  A
O643      Cu1721   1.983       .  S
O644        C654   1.273       .  A
O644       Cu649   1.987       .  S
O645        C654   1.281       .  A
O645       Cu650   2.039       .  S
O646        C653   1.281       .  A
O646      Cu1722   2.039       .  S
O647        C652   1.271       .  A
O647       Cu650   1.976       .  S
O648        C651   1.271       .  A
O648      Cu1722   1.982       .  S
Cu649      O1713   2.036   1_455  S
Cu649      O1715   1.983   1_455  S
Cu649      Cu650   2.379       .  S
Cu650      O1718   2.039   1_455  S
Cu650      O1720   1.982   1_455  S
C651        C765   1.435       .  S
C652        C758   1.430       .  S
C653        C761   1.436       .  S
C654        C760   1.439       .  S
C655        C656   1.531       .  S
C655        C661   1.529       .  S
C655        C659   1.538       .  S
C655        C799   1.471       .  S
C656        H663   1.087       .  S
C656        C657   1.361       .  D
C657        C658   1.548       .  S
C657        C753   1.449       .  S
C658        C662   1.542       .  S
C658        C660   1.546       .  S
C658        H664   1.111       .  S
C659        H665   1.086       .  S
C659        C660   1.368       .  D
C660        C755   1.455       .  S
C661        H666   1.087       .  S
C661        C662   1.364       .  D
C662        C790   1.444       .  S
C667        C668   1.532       .  S
C667        C673   1.533       .  S
C667        C671   1.532       .  S
C667        C787   1.469       .  S
C668        H675   1.088       .  S
C668        C669   1.365       .  D
C669        C670   1.541       .  S
C669        C759   1.446       .  S
C670        C674   1.548       .  S
C670        C672   1.550       .  S
C670        H676   1.111       .  S
C671        H677   1.087       .  S
C671        C672   1.363       .  D
C672        C752   1.453       .  S
C673        H678   1.086       .  S
C673        C674   1.363       .  D
C674        C750   1.452       .  S
C679        C680   1.529       .  S
C679        C685   1.525       .  S
C679        C683   1.535       .  S
C679        C757   1.465       .  S
C680        H687   1.087       .  S
C680        C681   1.361       .  D
C681        C682   1.549       .  S
C681        C745   1.446       .  S
C682        C686   1.543       .  S
C682        C684   1.550       .  S
C682        H688   1.111       .  S
C683        H689   1.088       .  S
C683        C684   1.367       .  D
C684        C748   1.457       .  S
C685        H690   1.087       .  S
C685        C686   1.361       .  D
C686        C777   1.442       .  S
C691        C692   1.528       .  S
C691        C697   1.531       .  S
C691        C695   1.527       .  S
C691        C782   1.461       .  S
C692        H699   1.087       .  S
C692        C693   1.363       .  D
C693        C694   1.546       .  S
C693        C801   1.447       .  S
C694        C698   1.549       .  S
C694        C696   1.550       .  S
C694        H700   1.111       .  S
C695        H701   1.087       .  S
C695        C696   1.361       .  D
C696        C743   1.449       .  S
C697        H702   1.086       .  S
C697        C698   1.363       .  D
C698        C741   1.448       .  S
O703        C713   1.272       .  A
O703       Cu979   1.990       .  S
O704        C714   1.271       .  A
O704       Cu711   1.987   1_554  S
O705        C715   1.283       .  A
O705       Cu711   2.046   1_554  S
O706        C716   1.283       .  A
O706       Cu979   2.050       .  S
O707        C716   1.271       .  A
O707       Cu980   1.985       .  S
O708        C715   1.270       .  A
O708       Cu712   1.980   1_554  S
O709        C714   1.283       .  A
O709       Cu712   2.049   1_554  S
O710        C713   1.284       .  A
O710       Cu980   2.052       .  S
Cu711       O971   1.990       .  S
Cu711       O974   2.050       .  S
Cu711      Cu712   2.377       .  S
Cu712       O975   1.985       .  S
Cu712       O978   2.052       .  S
C713        C749   1.445       .  S
C714        C742   1.442       .  S
C715        C746   1.438       .  S
C716        C754   1.442       .  S
C717        C718   1.532       .  S
C717        C723   1.536   1_554  S
C717        C721   1.534       .  S
C717        C764   1.477       .  S
C718       H1797   1.087       .  S
C718       C2059   1.364   1_554  D
C719       C2058   1.364       .  D
C719        C751   1.454       .  S
C720       C1796   1.545   1_455  S
C720        C990   1.544       .  S
C720        H726   1.111       .  S
C721       H1799   1.088   1_565  S
C721       C1258   1.365   1_565  D
C722        C988   1.544   1_554  S
C722       C1257   1.365   1_455  D
C722        C744   1.451       .  S
C723        H728   1.087       .  S
C724       C1792   1.545       .  S
C724        C796   1.453       .  S
H725       C1790   1.087       .  S
H727       C1793   1.088   1_545  S
C729        C730   1.538       .  S
C729        C735   1.533       .  S
C729        C733   1.537       .  S
C729        C767   1.481       .  S
C730        H737   1.087       .  S
C730        C731   1.367       .  D
C731        C732   1.545       .  S
C731        C747   1.457       .  S
C732        C736   1.549       .  S
C732        C734   1.545       .  S
C732        H738   1.111       .  S
C733        H739   1.087       .  S
C733        C734   1.366       .  D
C734        C756   1.455       .  S
C735        H740   1.087       .  S
C735        C736   1.365       .  D
C736        C776   1.454       .  S
C741        C742   1.210       .  T
C743        C744   1.211       .  T
C745        C746   1.208       .  T
C747        C748   1.215       .  T
C749        C750   1.212       .  T
C751        C752   1.213       .  T
C753        C754   1.211       .  T
C755        C756   1.214       .  T
C757        C758   1.204       .  T
C759        C760   1.208       .  T
C761        C762   1.207       .  T
C763        C764   1.211       .  T
C765        C766   1.206       .  T
C767        C768   1.213       .  T
C769        C770   1.204       .  T
C771        C772   1.209       .  T
C773        C774   1.210       .  T
C775        C776   1.213       .  T
C777        C778   1.206       .  T
C779        C780   1.199       .  T
C781        C782   1.202       .  T
C783        C784   1.206       .  T
C785        C786   1.203       .  T
C787        C788   1.206       .  T
C789        C790   1.208       .  T
C791        C792   1.203       .  T
C793        C794   1.206       .  T
C795        C796   1.213       .  T
C797        C798   1.207       .  T
C799        C800   1.207       .  T
C801        C802   1.209       .  T
C803        C804   1.208       .  T
O805        C815   1.282       .  A
O805      Cu1885   2.038       .  S
O806        C816   1.281       .  A
O806       Cu813   2.040       .  S
O807        C817   1.273       .  A
O807      Cu1885   1.992       .  S
O808        C818   1.273       .  A
O808       Cu813   1.993       .  S
O809        C818   1.281       .  A
O809      Cu1886   2.039       .  S
O810        C817   1.281       .  A
O810       Cu814   2.037       .  S
O811        C816   1.271       .  A
O811      Cu1886   1.982       .  S
O812        C815   1.271       .  A
O812       Cu814   1.982       .  S
Cu813      O1877   2.038   1_455  S
Cu813      O1879   1.992   1_455  S
Cu813     Cu1886   2.378       .  S
Cu814      O1881   2.039       .  S
Cu814      O1883   1.982       .  S
Cu814     Cu1885   2.378       .  S
C815       C1065   1.436       .  S
C816       C1068   1.436       .  S
C817       C1071   1.439       .  S
C818       C1070   1.441       .  S
C819        C820   1.523       .  S
C819        C825   1.533       .  S
C819        C823   1.533       .  S
C819       C1059   1.464       .  S
C820        H827   1.087       .  S
C820        C821   1.359       .  D
C821        C822   1.543       .  S
C821       C1061   1.441       .  S
C822        C826   1.545       .  S
C822        C824   1.547       .  S
C822        H828   1.111       .  S
C823        H829   1.088       .  S
C823        C824   1.366       .  D
C824       C1063   1.452       .  S
C825        H830   1.087       .  S
C825        C826   1.364       .  D
C826       C1072   1.445       .  S
O831        C841   1.275       .  A
O831       Cu839   1.997       .  S
O832        C842   1.273       .  A
O833        C843   1.279       .  A
O834        C844   1.279       .  A
O834       Cu839   2.028       .  S
O835        C844   1.274       .  A
O835       Cu840   1.993       .  S
O836        C843   1.274       .  A
O837        C842   1.278       .  A
O838        C841   1.279       .  A
O838       Cu840   2.028       .  S
Cu839      Cu840   2.380       .  S
C841       C1057   1.438       .  S
C842       C1053   1.430       .  S
C843       C1056   1.435       .  S
C844       C1062   1.435       .  S
O845        C855   1.275       .  A
O846        C856   1.275       .  A
O846       Cu853   1.998       .  S
O847        C857   1.277       .  A
O847       Cu853   2.012       .  S
O848        C858   1.277       .  A
O849        C858   1.273       .  A
O850        C857   1.272       .  A
O850       Cu854   1.977       .  S
O851        C856   1.278       .  A
O851       Cu854   2.027       .  S
O852        C855   1.278       .  A
Cu853      Cu854   2.382       .  S
C855       C1051   1.434       .  S
C856       C1046   1.436       .  S
C857       C1047   1.422       .  S
C858       C1049   1.426       .  S
C859        C860   1.532       .  S
C859        C865   1.530       .  S
C859        C863   1.534       .  S
C859       C1052   1.468       .  S
C860        H867   1.087       .  S
C860        C861   1.364       .  D
C861        C862   1.549       .  S
C861       C1043   1.453       .  S
C862        C866   1.544       .  S
C862        C864   1.541       .  S
C862        H868   1.111       .  S
C863        H869   1.087       .  S
C863        C864   1.367       .  D
C864       C1042   1.448       .  S
C865        H870   1.086       .  S
C865        C866   1.360       .  D
C866       C1066   1.443       .  S
O871        C881   1.270       .  A
O872        C882   1.270       .  A
O872       Cu879   1.975       .  S
O873        C883   1.283       .  A
O873       Cu879   2.049       .  S
O874        C884   1.283       .  A
O875        C884   1.271       .  A
O876        C883   1.271       .  A
O876       Cu880   1.983       .  S
O877        C882   1.281       .  A
O877       Cu880   2.034       .  S
O878        C881   1.281       .  A
Cu879      Cu880   2.379       .  S
C881       C1060   1.429       .  S
C882       C1037   1.431       .  S
C883       C1041   1.440       .  S
C884       C1039   1.439       .  S
C885        C886   1.530       .  S
C885        C891   1.529       .  S
C885        C889   1.532       .  S
C885       C1054   1.464       .  S
C886        H893   1.086       .  S
C886        C887   1.360       .  D
C887        C888   1.544       .  S
C887       C1034   1.442       .  S
C888        C892   1.545       .  S
C888        C890   1.548       .  S
C888        H894   1.111       .  S
C889        H895   1.086       .  S
C889        C890   1.364       .  D
C890       C1036   1.453       .  S
C891        H896   1.087       .  S
C891        C892   1.364       .  D
C892       C1040   1.447       .  S
C897        C898   1.524       .  S
C897        C903   1.528       .  S
C897        C901   1.532       .  S
C897       C1048   1.456       .  S
C898        H905   1.087       .  S
C898        C899   1.362       .  D
C899        C900   1.545       .  S
C899       C1030   1.442       .  S
C900        C904   1.543       .  S
C900        C902   1.547       .  S
C900        H906   1.111       .  S
C901        H907   1.087       .  S
C901        C902   1.365       .  D
C902       C1031   1.449       .  S
C903        H908   1.087       .  S
C903        C904   1.358       .  D
C904       C1038   1.438       .  S
O909        C919   1.281       .  A
O909      Cu1989   2.036       .  S
O910        C920   1.280       .  A
O910       Cu917   2.032       .  S
O911        C921   1.272       .  A
O911      Cu1989   1.983       .  S
O912        C922   1.273       .  A
O912       Cu917   1.987       .  S
O913        C922   1.281       .  A
O913       Cu918   2.039       .  S
O914        C921   1.281       .  A
O914      Cu1990   2.039       .  S
O915        C920   1.271       .  A
O915       Cu918   1.976       .  S
O916        C919   1.271       .  A
O916      Cu1990   1.982       .  S
Cu917      O1981   2.036   1_455  S
Cu917      O1983   1.983   1_455  S
Cu917      Cu918   2.379       .  S
Cu918      O1986   2.039   1_455  S
Cu918      O1988   1.982   1_455  S
C919       C1033   1.435       .  S
C920       C1026   1.430       .  S
C921       C1029   1.436       .  S
C922       C1028   1.439       .  S
C923        C924   1.531       .  S
C923        C929   1.529       .  S
C923        C927   1.538       .  S
C923       C1067   1.471       .  S
C924        H931   1.087       .  S
C924        C925   1.361       .  D
C925        C926   1.548       .  S
C925       C1021   1.449       .  S
C926        C930   1.542       .  S
C926        C928   1.546       .  S
C926        H932   1.111       .  S
C927        H933   1.086       .  S
C927        C928   1.368       .  D
C928       C1023   1.455       .  S
C929        H934   1.087       .  S
C929        C930   1.364       .  D
C930       C1058   1.444       .  S
C935        C936   1.532       .  S
C935        C941   1.533       .  S
C935        C939   1.532       .  S
C935       C1055   1.469       .  S
C936        H943   1.088       .  S
C936        C937   1.365       .  D
C937        C938   1.541       .  S
C937       C1027   1.446       .  S
C938        C942   1.548       .  S
C938        C940   1.550       .  S
C938        H944   1.111       .  S
C939        H945   1.087       .  S
C939        C940   1.363       .  D
C940       C1020   1.453       .  S
C941        H946   1.086       .  S
C941        C942   1.363       .  D
C942       C1018   1.452       .  S
C947        C948   1.529       .  S
C947        C953   1.525       .  S
C947        C951   1.535       .  S
C947       C1025   1.465       .  S
C948        H955   1.087       .  S
C948        C949   1.361       .  D
C949        C950   1.549       .  S
C949       C1013   1.446       .  S
C950        C954   1.543       .  S
C950        C952   1.550       .  S
C950        H956   1.111       .  S
C951        H957   1.088       .  S
C951        C952   1.367       .  D
C952       C1016   1.457       .  S
C953        H958   1.087       .  S
C953        C954   1.361       .  D
C954       C1045   1.442       .  S
C959        C960   1.528       .  S
C959        C965   1.531       .  S
C959        C963   1.527       .  S
C959       C1050   1.461       .  S
C960        H967   1.087       .  S
C960        C961   1.363       .  D
C961        C962   1.546       .  S
C961       C1069   1.447       .  S
C962        C966   1.549       .  S
C962        C964   1.550       .  S
C962        H968   1.111       .  S
C963        H969   1.087       .  S
C963        C964   1.361       .  D
C964       C1011   1.449       .  S
C965        H970   1.086       .  S
C965        C966   1.363       .  D
C966       C1009   1.448       .  S
O971        C981   1.272       .  A
O972        C982   1.271       .  A
O972       Cu979   1.987       .  S
O973        C983   1.283       .  A
O973       Cu979   2.046       .  S
O974        C984   1.283       .  A
O975        C984   1.271       .  A
O976        C983   1.270       .  A
O976       Cu980   1.980       .  S
O977        C982   1.283       .  A
O977       Cu980   2.049       .  S
O978        C981   1.284       .  A
Cu979      Cu980   2.377       .  S
C981       C1017   1.445       .  S
C982       C1010   1.442       .  S
C983       C1014   1.438       .  S
C984       C1022   1.442       .  S
C985        C986   1.532       .  S
C985        C991   1.536       .  S
C985        C989   1.534       .  S
C985       C1032   1.477       .  S
C986       H2065   1.087       .  S
C986       C1791   1.364       .  D
C987       C1790   1.364   1_556  D
C987       C1019   1.454       .  S
C988       C2064   1.545   1_455  S
C988        H994   1.111       .  S
C989       H2067   1.088   1_565  S
C989       C1526   1.365   1_565  D
C990       C1525   1.365   1_455  D
C990       C1012   1.451       .  S
C991        H996   1.087       .  S
C992       C2060   1.545       .  S
C992       C1064   1.453       .  S
H993       C2058   1.087       .  S
H995       C2061   1.088   1_545  S
C997        C998   1.538       .  S
C997       C1003   1.533       .  S
C997       C1001   1.537       .  S
C997       C1035   1.481       .  S
C998       H1005   1.087       .  S
C998        C999   1.367       .  D
C999       C1000   1.545       .  S
C999       C1015   1.457       .  S
C1000      C1004   1.549       .  S
C1000      C1002   1.545       .  S
C1000      H1006   1.111       .  S
C1001      H1007   1.087       .  S
C1001      C1002   1.366       .  D
C1002      C1024   1.455       .  S
C1003      H1008   1.087       .  S
C1003      C1004   1.365       .  D
C1004      C1044   1.454       .  S
C1009      C1010   1.210       .  T
C1011      C1012   1.211       .  T
C1013      C1014   1.208       .  T
C1015      C1016   1.215       .  T
C1017      C1018   1.212       .  T
C1019      C1020   1.213       .  T
C1021      C1022   1.211       .  T
C1023      C1024   1.214       .  T
C1025      C1026   1.204       .  T
C1027      C1028   1.208       .  T
C1029      C1030   1.207       .  T
C1031      C1032   1.211       .  T
C1033      C1034   1.206       .  T
C1035      C1036   1.213       .  T
C1037      C1038   1.204       .  T
C1039      C1040   1.209       .  T
C1041      C1042   1.210       .  T
C1043      C1044   1.213       .  T
C1045      C1046   1.206       .  T
C1047      C1048   1.199       .  T
C1049      C1050   1.202       .  T
C1051      C1052   1.206       .  T
C1053      C1054   1.203       .  T
C1055      C1056   1.206       .  T
C1057      C1058   1.208       .  T
C1059      C1060   1.203       .  T
C1061      C1062   1.206       .  T
C1063      C1064   1.213       .  T
C1065      C1066   1.207       .  T
C1067      C1068   1.207       .  T
C1069      C1070   1.209       .  T
C1071      C1072   1.208       .  T
O1073      C1083   1.282       .  A
O1074      C1084   1.281       .  A
O1074     Cu1081   2.040       .  S
O1075      C1085   1.273       .  A
O1076      C1086   1.273       .  A
O1076     Cu1081   1.993       .  S
O1077      C1086   1.281       .  A
O1078      C1085   1.281       .  A
O1078     Cu1082   2.037   1_655  S
O1079      C1084   1.271       .  A
O1080      C1083   1.271       .  A
O1080     Cu1082   1.982   1_655  S
C1083      C1333   1.436       .  S
C1084      C1336   1.436       .  S
C1085      C1339   1.439       .  S
C1086      C1338   1.441       .  S
C1087      C1088   1.523       .  S
C1087      C1093   1.533       .  S
C1087      C1091   1.533       .  S
C1087      C1327   1.464       .  S
C1088      H1095   1.087       .  S
C1088      C1089   1.359       .  D
C1089      C1090   1.543       .  S
C1089      C1329   1.441       .  S
C1090      C1094   1.545       .  S
C1090      C1092   1.547       .  S
C1090      H1096   1.111       .  S
C1091      H1097   1.088       .  S
C1091      C1092   1.365       .  D
C1092      C1331   1.452       .  S
C1093      H1098   1.087       .  S
C1093      C1094   1.364       .  D
C1094      C1340   1.445       .  S
O1099      C1109   1.275       .  A
O1099     Cu1107   1.997       .  S
O1100      C1110   1.273       .  A
O1100     Cu1643   1.987       .  S
O1101      C1111   1.279       .  A
O1101     Cu1643   2.026       .  S
O1102      C1112   1.279       .  A
O1102     Cu1107   2.028       .  S
O1103      C1112   1.274       .  A
O1103     Cu1108   1.993       .  S
O1104      C1111   1.274       .  A
O1104     Cu1644   1.992       .  S
O1105      C1110   1.278       .  A
O1105     Cu1644   2.021       .  S
O1106      C1109   1.279       .  A
O1106     Cu1108   2.028       .  S
Cu1107     O1636   1.987   1_545  S
Cu1107     O1637   2.026   1_545  S
Cu1107    Cu1108   2.380       .  S
Cu1108     O1640   1.992   1_545  S
Cu1108     O1641   2.021   1_545  S
C1109      C1325   1.438       .  S
C1110      C1321   1.430       .  S
C1111      C1324   1.435       .  S
C1112      C1330   1.435       .  S
O1113      C1123   1.275       .  A
O1113     Cu1657   1.995   1_545  S
O1114      C1124   1.275       .  A
O1114     Cu1121   1.998       .  S
O1115      C1125   1.277       .  A
O1115     Cu1121   2.012       .  S
O1116      C1126   1.277       .  A
O1116     Cu1657   2.014   1_545  S
O1117      C1126   1.273       .  A
O1117     Cu1658   1.983   1_545  S
O1118      C1125   1.272       .  A
O1118     Cu1122   1.977       .  S
O1119      C1124   1.278       .  A
O1119     Cu1122   2.027       .  S
O1120      C1123   1.278       .  A
O1120     Cu1658   2.022   1_545  S
Cu1121     O1649   1.995       .  S
Cu1121     O1652   2.014       .  S
Cu1121    Cu1122   2.382       .  S
Cu1122     O1653   1.983       .  S
Cu1122     O1656   2.022       .  S
C1123      C1319   1.434       .  S
C1124      C1314   1.436       .  S
C1125      C1315   1.422       .  S
C1126      C1317   1.426       .  S
C1127      C1128   1.532       .  S
C1127      C1133   1.530       .  S
C1127      C1131   1.534       .  S
C1127      C1320   1.468       .  S
C1128      H1135   1.087       .  S
C1128      C1129   1.364       .  D
C1129      C1130   1.549       .  S
C1129      C1311   1.453       .  S
C1130      C1134   1.544       .  S
C1130      C1132   1.541       .  S
C1130      H1136   1.111       .  S
C1131      H1137   1.087       .  S
C1131      C1132   1.367       .  D
C1132      C1310   1.448       .  S
C1133      H1138   1.086       .  S
C1133      C1134   1.360       .  D
C1134      C1334   1.443       .  S
O1139      C1149   1.270       .  A
O1139     Cu1415   1.970       .  S
O1140      C1150   1.270       .  A
O1140     Cu1147   1.975       .  S
O1141      C1151   1.283       .  A
O1141     Cu1147   2.049       .  S
O1142      C1152   1.283       .  A
O1142     Cu1415   2.048       .  S
O1143      C1152   1.271       .  A
O1143     Cu1416   1.981       .  S
O1144      C1151   1.271       .  A
O1144     Cu1148   1.983       .  S
O1145      C1150   1.281       .  A
O1145     Cu1148   2.034       .  S
O1146      C1149   1.281       .  A
O1146     Cu1416   2.032       .  S
Cu1147     O1407   1.970   1_554  S
Cu1147     O1410   2.048   1_554  S
Cu1147    Cu1148   2.379       .  S
Cu1148     O1411   1.981   1_554  S
Cu1148     O1414   2.032   1_554  S
C1149      C1328   1.429       .  S
C1150      C1305   1.431       .  S
C1151      C1309   1.440       .  S
C1152      C1307   1.439       .  S
C1153      C1154   1.530       .  S
C1153      C1159   1.529       .  S
C1153      C1157   1.532       .  S
C1153      C1322   1.464       .  S
C1154      H1161   1.086       .  S
C1154      C1155   1.360       .  D
C1155      C1156   1.544       .  S
C1155      C1302   1.442       .  S
C1156      C1160   1.545       .  S
C1156      C1158   1.548       .  S
C1156      H1162   1.111       .  S
C1157      H1163   1.086       .  S
C1157      C1158   1.364       .  D
C1158      C1304   1.453       .  S
C1159      H1164   1.087       .  S
C1159      C1160   1.364       .  D
C1160      C1308   1.447       .  S
C1165      C1166   1.524       .  S
C1165      C1171   1.528       .  S
C1165      C1169   1.532       .  S
C1165      C1316   1.456       .  S
C1166      H1173   1.087       .  S
C1166      C1167   1.362       .  D
C1167      C1168   1.545       .  S
C1167      C1298   1.442       .  S
C1168      C1172   1.543       .  S
C1168      C1170   1.547       .  S
C1168      H1174   1.111       .  S
C1169      H1175   1.087       .  S
C1169      C1170   1.365       .  D
C1170      C1299   1.449       .  S
C1171      H1176   1.087       .  S
C1171      C1172   1.358       .  D
C1172      C1306   1.438       .  S
O1177      C1187   1.281       .  A
O1178      C1188   1.280       .  A
O1178     Cu1185   2.031       .  S
O1179      C1189   1.272       .  A
O1180      C1190   1.273       .  A
O1180     Cu1185   1.987       .  S
O1181      C1190   1.281       .  A
O1181     Cu1186   2.039       .  S
O1182      C1189   1.281       .  A
O1183      C1188   1.271       .  A
O1183     Cu1186   1.976       .  S
O1184      C1187   1.271       .  A
Cu1185    Cu1186   2.379       .  S
C1187      C1301   1.435       .  S
C1188      C1294   1.430       .  S
C1189      C1297   1.436       .  S
C1190      C1296   1.439       .  S
C1191      C1192   1.531       .  S
C1191      C1197   1.529       .  S
C1191      C1195   1.538       .  S
C1191      C1335   1.471       .  S
C1192      H1199   1.087       .  S
C1192      C1193   1.361       .  D
C1193      C1194   1.548       .  S
C1193      C1289   1.449       .  S
C1194      C1198   1.542       .  S
C1194      C1196   1.546       .  S
C1194      H1200   1.111       .  S
C1195      H1201   1.086       .  S
C1195      C1196   1.368       .  D
C1196      C1291   1.455       .  S
C1197      H1202   1.087       .  S
C1197      C1198   1.364       .  D
C1198      C1326   1.444       .  S
C1203      C1204   1.532       .  S
C1203      C1209   1.533       .  S
C1203      C1207   1.532       .  S
C1203      C1323   1.469       .  S
C1204      H1211   1.088       .  S
C1204      C1205   1.365       .  D
C1205      C1206   1.541       .  S
C1205      C1295   1.446       .  S
C1206      C1210   1.548       .  S
C1206      C1208   1.550       .  S
C1206      H1212   1.111       .  S
C1207      H1213   1.087       .  S
C1207      C1208   1.363       .  D
C1208      C1288   1.453       .  S
C1209      H1214   1.086       .  S
C1209      C1210   1.363       .  D
C1210      C1286   1.452       .  S
C1215      C1216   1.529       .  S
C1215      C1221   1.525       .  S
C1215      C1219   1.535       .  S
C1215      C1293   1.465       .  S
C1216      H1223   1.087       .  S
C1216      C1217   1.361       .  D
C1217      C1218   1.549       .  S
C1217      C1281   1.446       .  S
C1218      C1222   1.543       .  S
C1218      C1220   1.550       .  S
C1218      H1224   1.111       .  S
C1219      H1225   1.088       .  S
C1219      C1220   1.367       .  D
C1220      C1284   1.457       .  S
C1221      H1226   1.087       .  S
C1221      C1222   1.361       .  D
C1222      C1313   1.442       .  S
C1227      C1228   1.528       .  S
C1227      C1233   1.531       .  S
C1227      C1231   1.527       .  S
C1227      C1318   1.461       .  S
C1228      H1235   1.087       .  S
C1228      C1229   1.363       .  D
C1229      C1230   1.546       .  S
C1229      C1337   1.447       .  S
C1230      C1234   1.549       .  S
C1230      C1232   1.550       .  S
C1230      H1236   1.111       .  S
C1231      H1237   1.087       .  S
C1231      C1232   1.361       .  D
C1232      C1279   1.449       .  S
C1233      H1238   1.086       .  S
C1233      C1234   1.363       .  D
C1234      C1277   1.448       .  S
O1239      C1249   1.272       .  A
O1239     Cu1515   1.990       .  S
O1240      C1250   1.271       .  A
O1240     Cu1247   1.987   1_554  S
O1241      C1251   1.283       .  A
O1241     Cu1247   2.046   1_554  S
O1242      C1252   1.283       .  A
O1242     Cu1515   2.050       .  S
O1243      C1252   1.271       .  A
O1243     Cu1516   1.985       .  S
O1244      C1251   1.270       .  A
O1244     Cu1248   1.980   1_554  S
O1245      C1250   1.283       .  A
O1245     Cu1248   2.049   1_554  S
O1246      C1249   1.284       .  A
O1246     Cu1516   2.052       .  S
Cu1247     O1507   1.990       .  S
Cu1247     O1510   2.050       .  S
Cu1247    Cu1248   2.377       .  S
Cu1248     O1511   1.985       .  S
Cu1248     O1514   2.052       .  S
C1249      C1285   1.445       .  S
C1250      C1278   1.442       .  S
C1251      C1282   1.438       .  S
C1252      C1290   1.442       .  S
C1253      C1254   1.532   1_655  S
C1253      C1259   1.536   1_554  S
C1253      C1257   1.534       .  S
C1253      C1300   1.477       .  S
C1255      C1792   1.550       .  S
C1255      C1287   1.454       .  S
C1256      C1791   1.550   1_545  S
C1256      C1526   1.544       .  S
C1256      H1262   1.111       .  S
C1258      C1524   1.544   1_554  S
C1258      C1280   1.451       .  S
C1259      H1264   1.087       .  S
C1259      C2064   1.367       .  D
C1260      C2063   1.367   1_545  D
C1260      C1332   1.453       .  S
C1265      C1266   1.538       .  S
C1265      C1271   1.533       .  S
C1265      C1269   1.537       .  S
C1265      C1303   1.481       .  S
C1266      H1273   1.087       .  S
C1266      C1267   1.367       .  D
C1267      C1268   1.545       .  S
C1267      C1283   1.457       .  S
C1268      C1272   1.549       .  S
C1268      C1270   1.545       .  S
C1268      H1274   1.111       .  S
C1269      H1275   1.087       .  S
C1269      C1270   1.366       .  D
C1270      C1292   1.455       .  S
C1271      H1276   1.087       .  S
C1271      C1272   1.365       .  D
C1272      C1312   1.454       .  S
C1277      C1278   1.210       .  T
C1279      C1280   1.211       .  T
C1281      C1282   1.208       .  T
C1283      C1284   1.215       .  T
C1285      C1286   1.212       .  T
C1287      C1288   1.213       .  T
C1289      C1290   1.211       .  T
C1291      C1292   1.214       .  T
C1293      C1294   1.204       .  T
C1295      C1296   1.208       .  T
C1297      C1298   1.207       .  T
C1299      C1300   1.211       .  T
C1301      C1302   1.206       .  T
C1303      C1304   1.213       .  T
C1305      C1306   1.204       .  T
C1307      C1308   1.209       .  T
C1309      C1310   1.210       .  T
C1311      C1312   1.213       .  T
C1313      C1314   1.206       .  T
C1315      C1316   1.199       .  T
C1317      C1318   1.202       .  T
C1319      C1320   1.206       .  T
C1321      C1322   1.203       .  T
C1323      C1324   1.206       .  T
C1325      C1326   1.208       .  T
C1327      C1328   1.203       .  T
C1329      C1330   1.206       .  T
C1331      C1332   1.213       .  T
C1333      C1334   1.207       .  T
C1335      C1336   1.207       .  T
C1337      C1338   1.209       .  T
C1339      C1340   1.208       .  T
O1341      C1351   1.282       .  A
O1342      C1352   1.281       .  A
O1342     Cu1349   2.040       .  S
O1343      C1353   1.273       .  A
O1344      C1354   1.273       .  A
O1344     Cu1349   1.993       .  S
O1345      C1354   1.281       .  A
O1346      C1353   1.281       .  A
O1346     Cu1350   2.037   1_655  S
O1347      C1352   1.271       .  A
O1348      C1351   1.271       .  A
O1348     Cu1350   1.982   1_655  S
C1351      C1601   1.436       .  S
C1352      C1604   1.436       .  S
C1353      C1607   1.439       .  S
C1354      C1606   1.441       .  S
C1355      C1356   1.523       .  S
C1355      C1361   1.533       .  S
C1355      C1359   1.533       .  S
C1355      C1595   1.464       .  S
C1356      H1363   1.087       .  S
C1356      C1357   1.359       .  D
C1357      C1358   1.543       .  S
C1357      C1597   1.441       .  S
C1358      C1362   1.545       .  S
C1358      C1360   1.547       .  S
C1358      H1364   1.111       .  S
C1359      H1365   1.088       .  S
C1359      C1360   1.366       .  D
C1360      C1599   1.452       .  S
C1361      H1366   1.087       .  S
C1361      C1362   1.364       .  D
C1362      C1608   1.445       .  S
O1367      C1377   1.275       .  A
O1367     Cu1375   1.997       .  S
O1368      C1378   1.273       .  A
O1368     Cu1911   1.987       .  S
O1369      C1379   1.279       .  A
O1369     Cu1911   2.026       .  S
O1370      C1380   1.279       .  A
O1370     Cu1375   2.028       .  S
O1371      C1380   1.274       .  A
O1371     Cu1376   1.993       .  S
O1372      C1379   1.274       .  A
O1372     Cu1912   1.992       .  S
O1373      C1378   1.278       .  A
O1373     Cu1912   2.021       .  S
O1374      C1377   1.279       .  A
O1374     Cu1376   2.028       .  S
Cu1375     O1904   1.987   1_545  S
Cu1375     O1905   2.026   1_545  S
Cu1375    Cu1376   2.380       .  S
Cu1376     O1908   1.992   1_545  S
Cu1376     O1909   2.021   1_545  S
C1377      C1593   1.438       .  S
C1378      C1589   1.430       .  S
C1379      C1592   1.435       .  S
C1380      C1598   1.435       .  S
O1381      C1391   1.275       .  A
O1381     Cu1925   1.995   1_545  S
O1382      C1392   1.275       .  A
O1382     Cu1389   1.998       .  S
O1383      C1393   1.277       .  A
O1383     Cu1389   2.012       .  S
O1384      C1394   1.277       .  A
O1384     Cu1925   2.014   1_545  S
O1385      C1394   1.273       .  A
O1385     Cu1926   1.983   1_545  S
O1386      C1393   1.272       .  A
O1386     Cu1390   1.977       .  S
O1387      C1392   1.278       .  A
O1387     Cu1390   2.027       .  S
O1388      C1391   1.278       .  A
O1388     Cu1926   2.022   1_545  S
Cu1389     O1917   1.995       .  S
Cu1389     O1920   2.014       .  S
Cu1389    Cu1390   2.382       .  S
Cu1390     O1921   1.983       .  S
Cu1390     O1924   2.022       .  S
C1391      C1587   1.434       .  S
C1392      C1582   1.436       .  S
C1393      C1583   1.422       .  S
C1394      C1585   1.426       .  S
C1395      C1396   1.532       .  S
C1395      C1401   1.530       .  S
C1395      C1399   1.534       .  S
C1395      C1588   1.468       .  S
C1396      H1403   1.087       .  S
C1396      C1397   1.364       .  D
C1397      C1398   1.549       .  S
C1397      C1579   1.453       .  S
C1398      C1402   1.544       .  S
C1398      C1400   1.541       .  S
C1398      H1404   1.111       .  S
C1399      H1405   1.087       .  S
C1399      C1400   1.367       .  D
C1400      C1578   1.448       .  S
C1401      H1406   1.086       .  S
C1401      C1402   1.360       .  D
C1402      C1602   1.443       .  S
O1407      C1417   1.270       .  A
O1408      C1418   1.270       .  A
O1408     Cu1415   1.975       .  S
O1409      C1419   1.283       .  A
O1409     Cu1415   2.049       .  S
O1410      C1420   1.283       .  A
O1411      C1420   1.271       .  A
O1412      C1419   1.271       .  A
O1412     Cu1416   1.983       .  S
O1413      C1418   1.281       .  A
O1413     Cu1416   2.034       .  S
O1414      C1417   1.281       .  A
Cu1415    Cu1416   2.379       .  S
C1417      C1596   1.429       .  S
C1418      C1573   1.431       .  S
C1419      C1577   1.440       .  S
C1420      C1575   1.439       .  S
C1421      C1422   1.530       .  S
C1421      C1427   1.529       .  S
C1421      C1425   1.532       .  S
C1421      C1590   1.464       .  S
C1422      H1429   1.086       .  S
C1422      C1423   1.360       .  D
C1423      C1424   1.544       .  S
C1423      C1570   1.442       .  S
C1424      C1428   1.545       .  S
C1424      C1426   1.548       .  S
C1424      H1430   1.111       .  S
C1425      H1431   1.086       .  S
C1425      C1426   1.364       .  D
C1426      C1572   1.453       .  S
C1427      H1432   1.087       .  S
C1427      C1428   1.364       .  D
C1428      C1576   1.447       .  S
C1433      C1434   1.524       .  S
C1433      C1439   1.528       .  S
C1433      C1437   1.532       .  S
C1433      C1584   1.456       .  S
C1434      H1441   1.087       .  S
C1434      C1435   1.362       .  D
C1435      C1436   1.545       .  S
C1435      C1566   1.442       .  S
C1436      C1440   1.543       .  S
C1436      C1438   1.547       .  S
C1436      H1442   1.111       .  S
C1437      H1443   1.087       .  S
C1437      C1438   1.365       .  D
C1438      C1567   1.449       .  S
C1439      H1444   1.087       .  S
C1439      C1440   1.358       .  D
C1440      C1574   1.438       .  S
O1445      C1455   1.281       .  A
O1446      C1456   1.280       .  A
O1446     Cu1453   2.032       .  S
O1447      C1457   1.272       .  A
O1448      C1458   1.273       .  A
O1448     Cu1453   1.987       .  S
O1449      C1458   1.281       .  A
O1449     Cu1454   2.039       .  S
O1450      C1457   1.281       .  A
O1451      C1456   1.271       .  A
O1451     Cu1454   1.976       .  S
O1452      C1455   1.271       .  A
Cu1453    Cu1454   2.379       .  S
C1455      C1569   1.435       .  S
C1456      C1562   1.430       .  S
C1457      C1565   1.436       .  S
C1458      C1564   1.439       .  S
C1459      C1460   1.531       .  S
C1459      C1465   1.529       .  S
C1459      C1463   1.538       .  S
C1459      C1603   1.471       .  S
C1460      H1467   1.087       .  S
C1460      C1461   1.361       .  D
C1461      C1462   1.548       .  S
C1461      C1557   1.449       .  S
C1462      C1466   1.542       .  S
C1462      C1464   1.546       .  S
C1462      H1468   1.111       .  S
C1463      H1469   1.086       .  S
C1463      C1464   1.368       .  D
C1464      C1559   1.455       .  S
C1465      H1470   1.087       .  S
C1465      C1466   1.364       .  D
C1466      C1594   1.444       .  S
C1471      C1472   1.532       .  S
C1471      C1477   1.533       .  S
C1471      C1475   1.532       .  S
C1471      C1591   1.469       .  S
C1472      H1479   1.088       .  S
C1472      C1473   1.365       .  D
C1473      C1474   1.541       .  S
C1473      C1563   1.446       .  S
C1474      C1478   1.548       .  S
C1474      C1476   1.550       .  S
C1474      H1480   1.111       .  S
C1475      H1481   1.087       .  S
C1475      C1476   1.363       .  D
C1476      C1556   1.453       .  S
C1477      H1482   1.086       .  S
C1477      C1478   1.363       .  D
C1478      C1554   1.452       .  S
C1483      C1484   1.529       .  S
C1483      C1489   1.525       .  S
C1483      C1487   1.535       .  S
C1483      C1561   1.465       .  S
C1484      H1491   1.087       .  S
C1484      C1485   1.361       .  D
C1485      C1486   1.549       .  S
C1485      C1549   1.446       .  S
C1486      C1490   1.543       .  S
C1486      C1488   1.550       .  S
C1486      H1492   1.111       .  S
C1487      H1493   1.088       .  S
C1487      C1488   1.367       .  D
C1488      C1552   1.457       .  S
C1489      H1494   1.087       .  S
C1489      C1490   1.361       .  D
C1490      C1581   1.442       .  S
C1495      C1496   1.528       .  S
C1495      C1501   1.531       .  S
C1495      C1499   1.527       .  S
C1495      C1586   1.461       .  S
C1496      H1503   1.087       .  S
C1496      C1497   1.363       .  D
C1497      C1498   1.546       .  S
C1497      C1605   1.447       .  S
C1498      C1502   1.549       .  S
C1498      C1500   1.550       .  S
C1498      H1504   1.111       .  S
C1499      H1505   1.087       .  S
C1499      C1500   1.361       .  D
C1500      C1547   1.449       .  S
C1501      H1506   1.086       .  S
C1501      C1502   1.363       .  D
C1502      C1545   1.448       .  S
O1507      C1517   1.272       .  A
O1508      C1518   1.271       .  A
O1508     Cu1515   1.987       .  S
O1509      C1519   1.283       .  A
O1509     Cu1515   2.046       .  S
O1510      C1520   1.283       .  A
O1511      C1520   1.271       .  A
O1512      C1519   1.270       .  A
O1512     Cu1516   1.980       .  S
O1513      C1518   1.283       .  A
O1513     Cu1516   2.049       .  S
O1514      C1517   1.284       .  A
Cu1515    Cu1516   2.377       .  S
C1517      C1553   1.445       .  S
C1518      C1546   1.442       .  S
C1519      C1550   1.438       .  S
C1520      C1558   1.442       .  S
C1521      C1522   1.532   1_655  S
C1521      C1527   1.536       .  S
C1521      C1525   1.534       .  S
C1521      C1568   1.477       .  S
C1523      C2060   1.550       .  S
C1523      C1555   1.454       .  S
C1524      C2059   1.550   1_545  S
C1524      H1530   1.111       .  S
C1526      C1548   1.451       .  S
C1527      H1532   1.087       .  S
C1527      C1796   1.367       .  D
C1528      C1795   1.367   1_545  D
C1528      C1600   1.453       .  S
C1533      C1534   1.538       .  S
C1533      C1539   1.533       .  S
C1533      C1537   1.537       .  S
C1533      C1571   1.481       .  S
C1534      H1541   1.087       .  S
C1534      C1535   1.367       .  D
C1535      C1536   1.545       .  S
C1535      C1551   1.457       .  S
C1536      C1540   1.549       .  S
C1536      C1538   1.545       .  S
C1536      H1542   1.111       .  S
C1537      H1543   1.087       .  S
C1537      C1538   1.366       .  D
C1538      C1560   1.455       .  S
C1539      H1544   1.087       .  S
C1539      C1540   1.365       .  D
C1540      C1580   1.454       .  S
C1545      C1546   1.210       .  T
C1547      C1548   1.211       .  T
C1549      C1550   1.208       .  T
C1551      C1552   1.215       .  T
C1553      C1554   1.212       .  T
C1555      C1556   1.213       .  T
C1557      C1558   1.211       .  T
C1559      C1560   1.214       .  T
C1561      C1562   1.204       .  T
C1563      C1564   1.208       .  T
C1565      C1566   1.207       .  T
C1567      C1568   1.211       .  T
C1569      C1570   1.206       .  T
C1571      C1572   1.213       .  T
C1573      C1574   1.204       .  T
C1575      C1576   1.209       .  T
C1577      C1578   1.210       .  T
C1579      C1580   1.213       .  T
C1581      C1582   1.206       .  T
C1583      C1584   1.199       .  T
C1585      C1586   1.202       .  T
C1587      C1588   1.206       .  T
C1589      C1590   1.203       .  T
C1591      C1592   1.206       .  T
C1593      C1594   1.208       .  T
C1595      C1596   1.203       .  T
C1597      C1598   1.206       .  T
C1599      C1600   1.213       .  T
C1601      C1602   1.207       .  T
C1603      C1604   1.207       .  T
C1605      C1606   1.209       .  T
C1607      C1608   1.208       .  T
O1609      C1619   1.282       .  A
O1610      C1620   1.281       .  A
O1610     Cu1617   2.040       .  S
O1611      C1621   1.273       .  A
O1612      C1622   1.273       .  A
O1612     Cu1617   1.993       .  S
O1613      C1622   1.281       .  A
O1614      C1621   1.281       .  A
O1614     Cu1618   2.037   1_655  S
O1615      C1620   1.271       .  A
O1616      C1619   1.271       .  A
O1616     Cu1618   1.982   1_655  S
C1619      C1869   1.436       .  S
C1620      C1872   1.436       .  S
C1621      C1875   1.439       .  S
C1622      C1874   1.441       .  S
C1623      C1624   1.523       .  S
C1623      C1629   1.533       .  S
C1623      C1627   1.533       .  S
C1623      C1863   1.464       .  S
C1624      H1631   1.087       .  S
C1624      C1625   1.359       .  D
C1625      C1626   1.543       .  S
C1625      C1865   1.441       .  S
C1626      C1630   1.545       .  S
C1626      C1628   1.547       .  S
C1626      H1632   1.111       .  S
C1627      H1633   1.088       .  S
C1627      C1628   1.365       .  D
C1628      C1867   1.452       .  S
C1629      H1634   1.087       .  S
C1629      C1630   1.364       .  D
C1630      C1876   1.445       .  S
O1635      C1645   1.275       .  A
O1635     Cu1643   1.997       .  S
O1636      C1646   1.273       .  A
O1637      C1647   1.279       .  A
O1638      C1648   1.279       .  A
O1638     Cu1643   2.028       .  S
O1639      C1648   1.274       .  A
O1639     Cu1644   1.993       .  S
O1640      C1647   1.274       .  A
O1641      C1646   1.278       .  A
O1642      C1645   1.279       .  A
O1642     Cu1644   2.028       .  S
Cu1643    Cu1644   2.380       .  S
C1645      C1861   1.438       .  S
C1646      C1857   1.430       .  S
C1647      C1860   1.435       .  S
C1648      C1866   1.435       .  S
O1649      C1659   1.275       .  A
O1650      C1660   1.275       .  A
O1650     Cu1657   1.998       .  S
O1651      C1661   1.277       .  A
O1651     Cu1657   2.012       .  S
O1652      C1662   1.277       .  A
O1653      C1662   1.273       .  A
O1654      C1661   1.272       .  A
O1654     Cu1658   1.977       .  S
O1655      C1660   1.278       .  A
O1655     Cu1658   2.027       .  S
O1656      C1659   1.278       .  A
Cu1657    Cu1658   2.382       .  S
C1659      C1855   1.434       .  S
C1660      C1850   1.436       .  S
C1661      C1851   1.422       .  S
C1662      C1853   1.426       .  S
C1663      C1664   1.532       .  S
C1663      C1669   1.530       .  S
C1663      C1667   1.534       .  S
C1663      C1856   1.468       .  S
C1664      H1671   1.087       .  S
C1664      C1665   1.364       .  D
C1665      C1666   1.549       .  S
C1665      C1847   1.453       .  S
C1666      C1670   1.544       .  S
C1666      C1668   1.541       .  S
C1666      H1672   1.111       .  S
C1667      H1673   1.087       .  S
C1667      C1668   1.367       .  D
C1668      C1846   1.448       .  S
C1669      H1674   1.086       .  S
C1669      C1670   1.360       .  D
C1670      C1870   1.443       .  S
O1675      C1685   1.270       .  A
O1675     Cu1951   1.970       .  S
O1676      C1686   1.270       .  A
O1676     Cu1683   1.975       .  S
O1677      C1687   1.283       .  A
O1677     Cu1683   2.049       .  S
O1678      C1688   1.283       .  A
O1678     Cu1951   2.048       .  S
O1679      C1688   1.271       .  A
O1679     Cu1952   1.981       .  S
O1680      C1687   1.271       .  A
O1680     Cu1684   1.983       .  S
O1681      C1686   1.281       .  A
O1681     Cu1684   2.034       .  S
O1682      C1685   1.281       .  A
O1682     Cu1952   2.032       .  S
Cu1683     O1943   1.970   1_554  S
Cu1683     O1946   2.048   1_554  S
Cu1683    Cu1684   2.379       .  S
Cu1684     O1947   1.981   1_554  S
Cu1684     O1950   2.032   1_554  S
C1685      C1864   1.429       .  S
C1686      C1841   1.431       .  S
C1687      C1845   1.440       .  S
C1688      C1843   1.439       .  S
C1689      C1690   1.530       .  S
C1689      C1695   1.529       .  S
C1689      C1693   1.532       .  S
C1689      C1858   1.464       .  S
C1690      H1697   1.086       .  S
C1690      C1691   1.360       .  D
C1691      C1692   1.544       .  S
C1691      C1838   1.442       .  S
C1692      C1696   1.545       .  S
C1692      C1694   1.548       .  S
C1692      H1698   1.111       .  S
C1693      H1699   1.086       .  S
C1693      C1694   1.364       .  D
C1694      C1840   1.453       .  S
C1695      H1700   1.087       .  S
C1695      C1696   1.364       .  D
C1696      C1844   1.447       .  S
C1701      C1702   1.524       .  S
C1701      C1707   1.528       .  S
C1701      C1705   1.532       .  S
C1701      C1852   1.456       .  S
C1702      H1709   1.087       .  S
C1702      C1703   1.362       .  D
C1703      C1704   1.545       .  S
C1703      C1834   1.442       .  S
C1704      C1708   1.543       .  S
C1704      C1706   1.547       .  S
C1704      H1710   1.111       .  S
C1705      H1711   1.087       .  S
C1705      C1706   1.365       .  D
C1706      C1835   1.449       .  S
C1707      H1712   1.087       .  S
C1707      C1708   1.358       .  D
C1708      C1842   1.438       .  S
O1713      C1723   1.281       .  A
O1714      C1724   1.280       .  A
O1714     Cu1721   2.032       .  S
O1715      C1725   1.272       .  A
O1716      C1726   1.273       .  A
O1716     Cu1721   1.987       .  S
O1717      C1726   1.281       .  A
O1717     Cu1722   2.039       .  S
O1718      C1725   1.281       .  A
O1719      C1724   1.271       .  A
O1719     Cu1722   1.976       .  S
O1720      C1723   1.271       .  A
Cu1721    Cu1722   2.379       .  S
C1723      C1837   1.435       .  S
C1724      C1830   1.430       .  S
C1725      C1833   1.436       .  S
C1726      C1832   1.439       .  S
C1727      C1728   1.531       .  S
C1727      C1733   1.529       .  S
C1727      C1731   1.538       .  S
C1727      C1871   1.471       .  S
C1728      H1735   1.087       .  S
C1728      C1729   1.361       .  D
C1729      C1730   1.548       .  S
C1729      C1825   1.449       .  S
C1730      C1734   1.542       .  S
C1730      C1732   1.546       .  S
C1730      H1736   1.111       .  S
C1731      H1737   1.086       .  S
C1731      C1732   1.368       .  D
C1732      C1827   1.455       .  S
C1733      H1738   1.087       .  S
C1733      C1734   1.364       .  D
C1734      C1862   1.444       .  S
C1739      C1740   1.532       .  S
C1739      C1745   1.533       .  S
C1739      C1743   1.532       .  S
C1739      C1859   1.469       .  S
C1740      H1747   1.088       .  S
C1740      C1741   1.365       .  D
C1741      C1742   1.541       .  S
C1741      C1831   1.446       .  S
C1742      C1746   1.548       .  S
C1742      C1744   1.550       .  S
C1742      H1748   1.111       .  S
C1743      H1749   1.087       .  S
C1743      C1744   1.363       .  D
C1744      C1824   1.453       .  S
C1745      H1750   1.086       .  S
C1745      C1746   1.363       .  D
C1746      C1822   1.452       .  S
C1751      C1752   1.529       .  S
C1751      C1757   1.525       .  S
C1751      C1755   1.535       .  S
C1751      C1829   1.465       .  S
C1752      H1759   1.087       .  S
C1752      C1753   1.361       .  D
C1753      C1754   1.549       .  S
C1753      C1817   1.446       .  S
C1754      C1758   1.543       .  S
C1754      C1756   1.550       .  S
C1754      H1760   1.111       .  S
C1755      H1761   1.088       .  S
C1755      C1756   1.367       .  D
C1756      C1820   1.457       .  S
C1757      H1762   1.087       .  S
C1757      C1758   1.361       .  D
C1758      C1849   1.442       .  S
C1763      C1764   1.528       .  S
C1763      C1769   1.531       .  S
C1763      C1767   1.527       .  S
C1763      C1854   1.461       .  S
C1764      H1771   1.087       .  S
C1764      C1765   1.363       .  D
C1765      C1766   1.546       .  S
C1765      C1873   1.447       .  S
C1766      C1770   1.549       .  S
C1766      C1768   1.550       .  S
C1766      H1772   1.111       .  S
C1767      H1773   1.087       .  S
C1767      C1768   1.361       .  D
C1768      C1815   1.449       .  S
C1769      H1774   1.086       .  S
C1769      C1770   1.363       .  D
C1770      C1813   1.448       .  S
O1775      C1785   1.272       .  A
O1775     Cu2051   1.990       .  S
O1776      C1786   1.271       .  A
O1776     Cu1783   1.987   1_554  S
O1777      C1787   1.283       .  A
O1777     Cu1783   2.046   1_554  S
O1778      C1788   1.283       .  A
O1778     Cu2051   2.050       .  S
O1779      C1788   1.271       .  A
O1779     Cu2052   1.985       .  S
O1780      C1787   1.270       .  A
O1780     Cu1784   1.980   1_554  S
O1781      C1786   1.283       .  A
O1781     Cu1784   2.049   1_554  S
O1782      C1785   1.284       .  A
O1782     Cu2052   2.052       .  S
Cu1783     O2043   1.990       .  S
Cu1783     O2046   2.050       .  S
Cu1783    Cu1784   2.377       .  S
Cu1784     O2047   1.985       .  S
Cu1784     O2050   2.052       .  S
C1785      C1821   1.445       .  S
C1786      C1814   1.442       .  S
C1787      C1818   1.438       .  S
C1788      C1826   1.442       .  S
C1789      C1790   1.532   1_655  S
C1789      C1795   1.536   1_554  S
C1789      C1793   1.534       .  S
C1789      C1836   1.477       .  S
C1791      C1823   1.454       .  S
C1792      C2062   1.544       .  S
C1792      H1798   1.111       .  S
C1794      C2060   1.544   1_554  S
C1794      C1816   1.451       .  S
C1795      H1800   1.087       .  S
C1796      C1868   1.453       .  S
C1801      C1802   1.538       .  S
C1801      C1807   1.533       .  S
C1801      C1805   1.537       .  S
C1801      C1839   1.481       .  S
C1802      H1809   1.087       .  S
C1802      C1803   1.367       .  D
C1803      C1804   1.545       .  S
C1803      C1819   1.457       .  S
C1804      C1808   1.549       .  S
C1804      C1806   1.545       .  S
C1804      H1810   1.111       .  S
C1805      H1811   1.087       .  S
C1805      C1806   1.366       .  D
C1806      C1828   1.455       .  S
C1807      H1812   1.087       .  S
C1807      C1808   1.365       .  D
C1808      C1848   1.454       .  S
C1813      C1814   1.210       .  T
C1815      C1816   1.211       .  T
C1817      C1818   1.208       .  T
C1819      C1820   1.215       .  T
C1821      C1822   1.212       .  T
C1823      C1824   1.213       .  T
C1825      C1826   1.211       .  T
C1827      C1828   1.214       .  T
C1829      C1830   1.204       .  T
C1831      C1832   1.208       .  T
C1833      C1834   1.207       .  T
C1835      C1836   1.211       .  T
C1837      C1838   1.206       .  T
C1839      C1840   1.213       .  T
C1841      C1842   1.204       .  T
C1843      C1844   1.209       .  T
C1845      C1846   1.210       .  T
C1847      C1848   1.213       .  T
C1849      C1850   1.206       .  T
C1851      C1852   1.199       .  T
C1853      C1854   1.202       .  T
C1855      C1856   1.206       .  T
C1857      C1858   1.203       .  T
C1859      C1860   1.206       .  T
C1861      C1862   1.208       .  T
C1863      C1864   1.203       .  T
C1865      C1866   1.206       .  T
C1867      C1868   1.213       .  T
C1869      C1870   1.207       .  T
C1871      C1872   1.207       .  T
C1873      C1874   1.209       .  T
C1875      C1876   1.208       .  T
O1877      C1887   1.282       .  A
O1878      C1888   1.281       .  A
O1878     Cu1885   2.040       .  S
O1879      C1889   1.273       .  A
O1880      C1890   1.273       .  A
O1880     Cu1885   1.993       .  S
O1881      C1890   1.281       .  A
O1882      C1889   1.281       .  A
O1882     Cu1886   2.037   1_655  S
O1883      C1888   1.271       .  A
O1884      C1887   1.271       .  A
O1884     Cu1886   1.982   1_655  S
C1887      C2137   1.436       .  S
C1888      C2140   1.436       .  S
C1889      C2143   1.439       .  S
C1890      C2142   1.441       .  S
C1891      C1892   1.523       .  S
C1891      C1897   1.533       .  S
C1891      C1895   1.533       .  S
C1891      C2131   1.464       .  S
C1892      H1899   1.087       .  S
C1892      C1893   1.359       .  D
C1893      C1894   1.543       .  S
C1893      C2133   1.441       .  S
C1894      C1898   1.545       .  S
C1894      C1896   1.547       .  S
C1894      H1900   1.111       .  S
C1895      H1901   1.088       .  S
C1895      C1896   1.366       .  D
C1896      C2135   1.452       .  S
C1897      H1902   1.087       .  S
C1897      C1898   1.364       .  D
C1898      C2144   1.445       .  S
O1903      C1913   1.275       .  A
O1903     Cu1911   1.997       .  S
O1904      C1914   1.273       .  A
O1905      C1915   1.279       .  A
O1906      C1916   1.279       .  A
O1906     Cu1911   2.028       .  S
O1907      C1916   1.274       .  A
O1907     Cu1912   1.993       .  S
O1908      C1915   1.274       .  A
O1909      C1914   1.278       .  A
O1910      C1913   1.279       .  A
O1910     Cu1912   2.028       .  S
Cu1911    Cu1912   2.380       .  S
C1913      C2129   1.438       .  S
C1914      C2125   1.430       .  S
C1915      C2128   1.435       .  S
C1916      C2134   1.435       .  S
O1917      C1927   1.275       .  A
O1918      C1928   1.275       .  A
O1918     Cu1925   1.998       .  S
O1919      C1929   1.277       .  A
O1919     Cu1925   2.012       .  S
O1920      C1930   1.277       .  A
O1921      C1930   1.273       .  A
O1922      C1929   1.272       .  A
O1922     Cu1926   1.977       .  S
O1923      C1928   1.278       .  A
O1923     Cu1926   2.027       .  S
O1924      C1927   1.278       .  A
Cu1925    Cu1926   2.382       .  S
C1927      C2123   1.434       .  S
C1928      C2118   1.436       .  S
C1929      C2119   1.422       .  S
C1930      C2121   1.426       .  S
C1931      C1932   1.532       .  S
C1931      C1937   1.530       .  S
C1931      C1935   1.534       .  S
C1931      C2124   1.468       .  S
C1932      H1939   1.087       .  S
C1932      C1933   1.364       .  D
C1933      C1934   1.549       .  S
C1933      C2115   1.453       .  S
C1934      C1938   1.544       .  S
C1934      C1936   1.541       .  S
C1934      H1940   1.111       .  S
C1935      H1941   1.087       .  S
C1935      C1936   1.367       .  D
C1936      C2114   1.448       .  S
C1937      H1942   1.086       .  S
C1937      C1938   1.360       .  D
C1938      C2138   1.443       .  S
O1943      C1953   1.270       .  A
O1944      C1954   1.270       .  A
O1944     Cu1951   1.975       .  S
O1945      C1955   1.283       .  A
O1945     Cu1951   2.049       .  S
O1946      C1956   1.283       .  A
O1947      C1956   1.271       .  A
O1948      C1955   1.271       .  A
O1948     Cu1952   1.983       .  S
O1949      C1954   1.281       .  A
O1949     Cu1952   2.034       .  S
O1950      C1953   1.281       .  A
Cu1951    Cu1952   2.379       .  S
C1953      C2132   1.429       .  S
C1954      C2109   1.431       .  S
C1955      C2113   1.440       .  S
C1956      C2111   1.439       .  S
C1957      C1958   1.530       .  S
C1957      C1963   1.529       .  S
C1957      C1961   1.532       .  S
C1957      C2126   1.464       .  S
C1958      H1965   1.086       .  S
C1958      C1959   1.360       .  D
C1959      C1960   1.544       .  S
C1959      C2106   1.442       .  S
C1960      C1964   1.545       .  S
C1960      C1962   1.548       .  S
C1960      H1966   1.111       .  S
C1961      H1967   1.086       .  S
C1961      C1962   1.364       .  D
C1962      C2108   1.453       .  S
C1963      H1968   1.087       .  S
C1963      C1964   1.364       .  D
C1964      C2112   1.447       .  S
C1969      C1970   1.524       .  S
C1969      C1975   1.528       .  S
C1969      C1973   1.532       .  S
C1969      C2120   1.456       .  S
C1970      H1977   1.087       .  S
C1970      C1971   1.362       .  D
C1971      C1972   1.545       .  S
C1971      C2102   1.442       .  S
C1972      C1976   1.543       .  S
C1972      C1974   1.547       .  S
C1972      H1978   1.111       .  S
C1973      H1979   1.087       .  S
C1973      C1974   1.365       .  D
C1974      C2103   1.449       .  S
C1975      H1980   1.087       .  S
C1975      C1976   1.358       .  D
C1976      C2110   1.438       .  S
O1981      C1991   1.281       .  A
O1982      C1992   1.280       .  A
O1982     Cu1989   2.032       .  S
O1983      C1993   1.272       .  A
O1984      C1994   1.273       .  A
O1984     Cu1989   1.987       .  S
O1985      C1994   1.281       .  A
O1985     Cu1990   2.039       .  S
O1986      C1993   1.281       .  A
O1987      C1992   1.271       .  A
O1987     Cu1990   1.976       .  S
O1988      C1991   1.271       .  A
Cu1989    Cu1990   2.379       .  S
C1991      C2105   1.435       .  S
C1992      C2098   1.430       .  S
C1993      C2101   1.436       .  S
C1994      C2100   1.439       .  S
C1995      C1996   1.531       .  S
C1995      C2001   1.529       .  S
C1995      C1999   1.538       .  S
C1995      C2139   1.471       .  S
C1996      H2003   1.087       .  S
C1996      C1997   1.361       .  D
C1997      C1998   1.548       .  S
C1997      C2093   1.449       .  S
C1998      C2002   1.542       .  S
C1998      C2000   1.546       .  S
C1998      H2004   1.111       .  S
C1999      H2005   1.086       .  S
C1999      C2000   1.368       .  D
C2000      C2095   1.455       .  S
C2001      H2006   1.087       .  S
C2001      C2002   1.364       .  D
C2002      C2130   1.444       .  S
C2007      C2008   1.532       .  S
C2007      C2013   1.533       .  S
C2007      C2011   1.532       .  S
C2007      C2127   1.469       .  S
C2008      H2015   1.088       .  S
C2008      C2009   1.365       .  D
C2009      C2010   1.541       .  S
C2009      C2099   1.446       .  S
C2010      C2014   1.548       .  S
C2010      C2012   1.550       .  S
C2010      H2016   1.111       .  S
C2011      H2017   1.087       .  S
C2011      C2012   1.363       .  D
C2012      C2092   1.453       .  S
C2013      H2018   1.086       .  S
C2013      C2014   1.363       .  D
C2014      C2090   1.452       .  S
C2019      C2020   1.529       .  S
C2019      C2025   1.525       .  S
C2019      C2023   1.535       .  S
C2019      C2097   1.465       .  S
C2020      H2027   1.087       .  S
C2020      C2021   1.361       .  D
C2021      C2022   1.549       .  S
C2021      C2085   1.446       .  S
C2022      C2026   1.543       .  S
C2022      C2024   1.550       .  S
C2022      H2028   1.111       .  S
C2023      H2029   1.088       .  S
C2023      C2024   1.367       .  D
C2024      C2088   1.457       .  S
C2025      H2030   1.087       .  S
C2025      C2026   1.361       .  D
C2026      C2117   1.442       .  S
C2031      C2032   1.528       .  S
C2031      C2037   1.531       .  S
C2031      C2035   1.527       .  S
C2031      C2122   1.461       .  S
C2032      H2039   1.087       .  S
C2032      C2033   1.363       .  D
C2033      C2034   1.546       .  S
C2033      C2141   1.447       .  S
C2034      C2038   1.549       .  S
C2034      C2036   1.550       .  S
C2034      H2040   1.111       .  S
C2035      H2041   1.087       .  S
C2035      C2036   1.361       .  D
C2036      C2083   1.449       .  S
C2037      H2042   1.086       .  S
C2037      C2038   1.363       .  D
C2038      C2081   1.448       .  S
O2043      C2053   1.272       .  A
O2044      C2054   1.271       .  A
O2044     Cu2051   1.987       .  S
O2045      C2055   1.283       .  A
O2045     Cu2051   2.046       .  S
O2046      C2056   1.283       .  A
O2047      C2056   1.271       .  A
O2048      C2055   1.270       .  A
O2048     Cu2052   1.980       .  S
O2049      C2054   1.283       .  A
O2049     Cu2052   2.049       .  S
O2050      C2053   1.284       .  A
Cu2051    Cu2052   2.377       .  S
C2053      C2089   1.445       .  S
C2054      C2082   1.442       .  S
C2055      C2086   1.438       .  S
C2056      C2094   1.442       .  S
C2057      C2058   1.532   1_655  S
C2057      C2063   1.536       .  S
C2057      C2061   1.534       .  S
C2057      C2104   1.477       .  S
C2059      C2091   1.454       .  S
C2060      H2066   1.111       .  S
C2062      C2084   1.451       .  S
C2063      H2068   1.087       .  S
C2064      C2136   1.453       .  S
C2069      C2070   1.538       .  S
C2069      C2075   1.533       .  S
C2069      C2073   1.537       .  S
C2069      C2107   1.481       .  S
C2070      H2077   1.087       .  S
C2070      C2071   1.367       .  D
C2071      C2072   1.545       .  S
C2071      C2087   1.457       .  S
C2072      C2076   1.549       .  S
C2072      C2074   1.545       .  S
C2072      H2078   1.111       .  S
C2073      H2079   1.087       .  S
C2073      C2074   1.366       .  D
C2074      C2096   1.455       .  S
C2075      H2080   1.087       .  S
C2075      C2076   1.365       .  D
C2076      C2116   1.454       .  S
C2081      C2082   1.210       .  T
C2083      C2084   1.211       .  T
C2085      C2086   1.208       .  T
C2087      C2088   1.215       .  T
C2089      C2090   1.212       .  T
C2091      C2092   1.213       .  T
C2093      C2094   1.211       .  T
C2095      C2096   1.214       .  T
C2097      C2098   1.204       .  T
C2099      C2100   1.208       .  T
C2101      C2102   1.207       .  T
C2103      C2104   1.211       .  T
C2105      C2106   1.206       .  T
C2107      C2108   1.213       .  T
C2109      C2110   1.204       .  T
C2111      C2112   1.209       .  T
C2113      C2114   1.210       .  T
C2115      C2116   1.213       .  T
C2117      C2118   1.206       .  T
C2119      C2120   1.199       .  T
C2121      C2122   1.202       .  T
C2123      C2124   1.206       .  T
C2125      C2126   1.203       .  T
C2127      C2128   1.206       .  T
C2129      C2130   1.208       .  T
C2131      C2132   1.203       .  T
C2133      C2134   1.206       .  T
C2135      C2136   1.213       .  T
C2137      C2138   1.207       .  T
C2139      C2140   1.207       .  T
C2141      C2142   1.209       .  T
C2143      C2144   1.208       .  T
