geometry optimzed in LAMMPS
_audit_creation_date              2020-11-30 
_audit_creation_method            'lammps2cif' 
_symmetry_space_group_name_H-M    'P1' 
_symmetry_Int_Tables_number       1 
_symmetry_cell_setting            triclinic 
loop_ 
_symmetry_equiv_pos_as_xyz 
  x,y,z 
_cell_length_a                    26.744219077441077 
_cell_length_b                    25.779410482510336 
_cell_length_c                    22.414029288577744 
_cell_angle_alpha                 90.79160289695888 
_cell_angle_beta                  90.08461210398538 
_cell_angle_gamma                 90.00803988985379 
loop_ 
_atom_site_label 
_atom_site_type_symbol 
_atom_site_fract_x 
_atom_site_fract_y 
_atom_site_fract_z 
_atom_site_charge 
C1          C  0.25589559  0.25044716  0.75958618    -0.00110
O2          O  0.11479598  0.08741709  0.49548262    -0.72910
O3          O  0.17798386  0.14681785  0.49131421    -0.51820
C4          C  0.13138991  0.13377998  0.49349595     0.80810
O5          O  0.25066879  0.39724247  0.65501360    -0.57520
O6          O  0.24468713  0.34325041  0.57337003    -0.50540
C7          C  0.24589489  0.35194524  0.63015511     0.72830
O8          O  0.26153095  0.09614937  0.65921442    -0.72070
O9          O  0.26383678  0.15025646  0.57920223    -0.52640
C10         C  0.26529833  0.14161928  0.63525304     0.78830
O11         O  0.11067184  0.41602751  0.48783062    -0.57220
O12         O  0.17095714  0.35340269  0.48035303    -0.50340
C13         C  0.12516301  0.36888162  0.48306075     0.75420
Zr14       Zr  0.14990122  0.49994972  0.49498079     2.54710
O15         O  0.08647699  0.49774223  0.57266851    -0.77780
O16         O  0.08922705  0.50278455  0.41389908    -0.91200
Zr17       Zr  0.25267674  0.48843560  0.62263100     2.64680
O18         O  0.18910514  0.01287929  0.69719010    -0.96160
O19         O  0.32117454  0.48441108  0.69412713    -0.78220
O20         O  0.20252514  0.05331918  0.55736797    -0.81570
O21         O  0.19963567  0.44430923  0.55362642    -2.16280
O22         O  0.24455554  0.42254961  0.32014469    -0.64960
O23         O  0.24985492  0.35616652  0.38656477    -0.49530
C24         C  0.24539965  0.37382755  0.33317672     0.73810
O25         O  0.39798593  0.08012895  0.49131886    -0.57870
O26         O  0.33721746  0.14237486  0.49010562    -0.49850
C27         C  0.38315627  0.12725124  0.49030241     0.75610
O28         O  0.39326189  0.40998666  0.49415627    -0.69270
O29         O  0.33102292  0.34962293  0.48486251    -0.47940
C30         C  0.37734171  0.36337859  0.48901510     0.76990
O31         O  0.26464742  0.08180105  0.32464418    -0.64600
O32         O  0.26424259  0.14339444  0.39914376    -0.51790
C33         C  0.26745331  0.12911738  0.34430319     0.75370
Zr34       Zr  0.25480645  0.50762723  0.37101949     2.77540
O35         O  0.31917824  0.98562964  0.29132855    -0.95350
O36         O  0.18841977  0.99909303  0.29321389    -0.76170
Zr37       Zr  0.35718262  0.49539648  0.49838499     2.70070
O38         O  0.42123269  0.49428865  0.42134533    -0.77410
O39         O  0.41698439  0.49505891  0.58038524    -0.96500
Zr40       Zr  0.25669963  0.09763864  0.49115994     2.21500
Zr41       Zr  0.25174522  0.39742459  0.48533520     2.11130
O42         O  0.30588626  0.45099601  0.42798014    -2.45180
O43         O  0.30858170  0.04502905  0.42929113    -0.77210
O44         O  0.20086944  0.45324843  0.42673356    -0.69400
O45         O  0.30845467  0.04978015  0.55716805    -2.30360
O46         O  0.20257606  0.04845728  0.42779220    -2.26570
O47         O  0.30474189  0.44106360  0.55538567    -0.71160
H48         H  0.17804468  0.42116238  0.57521706     0.80840
H49         H  0.33010622  0.07236500  0.58022998     0.81920
H50         H  0.32635756  0.43001882  0.40163400     0.84150
H51         H  0.18284992  0.07089358  0.40286366     0.81750
H52         H  0.34733927  0.02226604  0.68160373     0.44790
H53         H  0.40743064  0.46475181  0.60451854     0.43760
H54         H  0.40599873  0.00494504  0.38213640     0.43440
H55         H  0.33724284  0.47144662  0.30101830     0.41370
H56         H  0.16204953  0.49933743  0.30900388     0.44500
H57         H  0.09488279  0.03283471  0.39131477     0.39290
H58         H  0.10317539  0.02405728  0.60541211     0.45400
H59         H  0.16594693  0.45449524  0.68523867     0.41820
H60         H  0.30515398  0.50635609  0.25907305     0.46740
H61         H  0.05682202  0.50963024  0.43382274     0.45460
H62         H  0.20573115  0.46866739  0.73422798     0.45600
H63         H  0.44912984  0.48501841  0.56165133     0.45960
C64         C  0.48003856  0.24728955  0.48925511     0.02940
C65         C  0.02829942  0.24940689  0.48914192     0.02940
C66         C  0.25013303  0.24382682  0.23696166    -0.00110
C67         C  0.22907303  0.49299298  0.00153755     0.02940
C68         C  0.27934972  0.49390210  0.99907894     0.02940
O69         O  0.10007590  0.24046185  0.84064490    -0.72910
O70         O  0.15028597  0.23623179  0.92318148    -0.51820
C71         C  0.14300298  0.23587742  0.86662472     0.80810
O72         O  0.42165365  0.38990365  0.00170195    -0.57520
O73         O  0.36271583  0.32570097  0.99770447    -0.50540
C74         C  0.37628962  0.37338967  0.99950019     0.72830
O75         O  0.08807355  0.38863246  0.00178467    -0.72070
O76         O  0.14578696  0.32361670  0.00822123    -0.52640
C77         C  0.13314993  0.37150568  0.00493827     0.78830
O78         O  0.42841332  0.24165253  0.83246039    -0.57220
O79         O  0.36712358  0.24501432  0.90343981    -0.50340
C80         C  0.38218203  0.24327981  0.84871995     0.75420
Zr81       Zr  0.01179206  0.24416636  0.87277874     2.54710
O82         O  0.01808644  0.31408236  0.80128147    -0.77780
O83         O  0.51301874  0.17487540  0.80288904    -0.91200
Zr84       Zr  0.00334171  0.35365925  0.99919173     2.64680
O85         O  0.00554833  0.41832090  0.92098814    -0.96160
O86         O  0.50620973  0.42249715  0.07857964    -0.78220
O87         O  0.05586228  0.29938576  0.94042698    -0.81570
O88         O  0.45997274  0.29916054  0.93749516    -2.16280
O89         O  0.42011783  0.10174126  0.00308775    -0.64960
O90         O  0.36174084  0.16637986  0.99987521    -0.49530
C91         C  0.37485616  0.11851425  0.00123992     0.73810
O92         O  0.07348907  0.24865957  0.17736681    -0.57870
O93         O  0.13514887  0.24855428  0.10718596    -0.49850
C94         C  0.11969065  0.24967058  0.16156851     0.75610
O95         O  0.41927556  0.26469901  0.16906084    -0.69270
O96         O  0.36240547  0.25221826  0.09405555    -0.47940
C97         C  0.37450519  0.26139782  0.14911915     0.76990
O98         O  0.08747293  0.10007810  0.00414656    -0.64600
O99         O  0.14519524  0.16487688  0.01435695    -0.51790
C100        C  0.13247741  0.11693832  0.00983576     0.75370
Zr101      Zr  0.00337773  0.13601407  0.99840425     2.77540
O102        O  0.00089926  0.07048731  0.07557809    -0.95350
O103        O  0.00718246  0.07031623  0.91949647    -0.76170
Zr104      Zr  0.99339048  0.24671579  0.12488470     2.70070
O105        O  0.99042630  0.18239706  0.20325309    -0.77410
O106        O  0.98470143  0.31963219  0.19428305    -0.96500
Zr107      Zr  0.09727936  0.24450867  0.00930885     2.21500
Zr108      Zr  0.40960146  0.24598738  0.00011186     2.11130
O109        O  0.45473732  0.19250782  0.06737325    -2.45180
O110        O  0.04619136  0.19006396  0.06833549    -0.77210
O111        O  0.45959080  0.18972339  0.93939655    -0.69400
O112        O  0.04635613  0.30101026  0.06803226    -2.30360
O113        O  0.05488418  0.18931373  0.93987251    -2.26570
O114        O  0.45563112  0.30260059  0.06438104    -0.71160
H115        H  0.43937837  0.31991954  0.91166127     0.80840
H116        H  0.06643004  0.32270651  0.09411139     0.81920
H117        H  0.43222907  0.17239137  0.09153260     0.84150
H118        H  0.07786303  0.16745178  0.91786171     0.81750
H119        H  0.01961655  0.40613603  0.11056836     0.44790
H120        H  0.48583021  0.34591572  0.19056790     0.43760
H121        H  0.00220683  0.14997399  0.18370158     0.43440
H122        H  0.47326502  0.08028338  0.10834644     0.41370
H123        H  0.48892093  0.08743957  0.89385642     0.44500
H124        H  0.04136899  0.15286396  0.80867878     0.39290
H125        H  0.03622991  0.34202479  0.82297785     0.45400
H126        H  0.47675473  0.40933928  0.89816324     0.41820
H127        H  0.99281410  0.03779888  0.05393321     0.46740
H128        H  0.52575691  0.19214478  0.76676597     0.45460
H129        H  0.99783116  0.45149986  0.94177521     0.45600
H130        H  0.97273036  0.30391517  0.23170558     0.45960
C131        C  0.30770823  0.04396913  0.00214934    -0.10900
C132        C  0.33618361  0.08012666  0.00135944    -0.12450
C133        C  0.17218165  0.40945121  0.00450328    -0.10900
C134        C  0.20094027  0.44532798  0.00340848    -0.12450
C135        C  0.33788094  0.41176264  0.99903558    -0.10900
C136        C  0.30878881  0.44724084  0.99894903    -0.12450
C137        C  0.17125858  0.07858101  0.00979727    -0.10900
C138        C  0.19985547  0.04249188  0.00750275    -0.12450
C139        C  0.29524593  0.23752380  0.19577346    -0.14050
C140        C  0.33481313  0.26923637  0.19387140    -0.29230
H141        H  0.29328763  0.20603302  0.16292881     0.14970
H142        H  0.33977799  0.29973664  0.22719608     0.15540
C143        C  0.20674068  0.25447217  0.19488150    -0.14050
C144        C  0.15807139  0.25092053  0.20921572    -0.29230
H145        H  0.21600566  0.26154920  0.14838618     0.14970
H146        H  0.14693469  0.24495629  0.25519860     0.15540
C147        C  0.23974323  0.33577319  0.28267874    -0.14050
C148        C  0.25662164  0.28639300  0.28568468    -0.29230
H149        H  0.22210232  0.34906356  0.24201009     0.14970
H150        H  0.27761580  0.27601089  0.32531110     0.15540
C151        C  0.27785319  0.17105840  0.30242974    -0.14050
C152        C  0.24217042  0.19189749  0.26790798    -0.29210
H153        H  0.31334235  0.19112324  0.30773040     0.14970
H154        H  0.20634809  0.17213947  0.26442310     0.15540
C155        C  0.44816678  0.29230178  0.48827420    -0.10900
C156        C  0.41532098  0.32425870  0.48807897    -0.12450
C157        C  0.09375924  0.17323801  0.49305354    -0.10900
C158        C  0.06054805  0.20475796  0.49169318    -0.12450
C159        C  0.05542896  0.29720548  0.48486200    -0.10900
C160        C  0.08648925  0.33076177  0.48243800    -0.12450
C161        C  0.45260464  0.19942620  0.48981637    -0.10900
C162        C  0.42158545  0.16569089  0.48986001    -0.12450
C163        C  0.34430759  0.24327065  0.79999042    -0.14050
C164        C  0.29508321  0.25091193  0.80972859    -0.29230
H165        H  0.35728966  0.23738340  0.75447965     0.14970
H166        H  0.28277667  0.25781446  0.85536607     0.15540
C167        C  0.18789879  0.22599410  0.83063601    -0.14050
C168        C  0.20402708  0.25754425  0.78745437    -0.29230
H169        H  0.21236884  0.19528048  0.84601372     0.14970
H170        H  0.18077939  0.29028272  0.77496631     0.15540
C171        C  0.26562474  0.29706793  0.71850145    -0.14050
C172        C  0.23824791  0.30637808  0.66902551    -0.29230
H173        H  0.29525091  0.32425624  0.73026924     0.14970
H174        H  0.21017974  0.27823671  0.65510248     0.15540
C175        C  0.25693996  0.19690541  0.72770942    -0.14050
C176        C  0.27318167  0.18930193  0.67164822    -0.29230
H177        H  0.24227754  0.16363837  0.75124475     0.14970
H178        H  0.28976674  0.22142945  0.64805331     0.15540
C179        C  0.24866220  0.75460377  0.75305772    -0.00110
O180        O  0.11398838  0.58546696  0.50151533    -0.72910
O181        O  0.17670765  0.64542334  0.50921677    -0.51820
C182        C  0.13035177  0.63198704  0.50579227     0.80810
O183        O  0.24625737  0.91561798  0.66403155    -0.57520
O184        O  0.24522612  0.85529659  0.58810309    -0.50540
C185        C  0.24249244  0.86862010  0.64306773     0.72830
O186        O  0.24899046  0.57394798  0.67361191    -0.72070
O187        O  0.25402412  0.63976679  0.60670798    -0.52640
C188        C  0.25096473  0.62255935  0.66031285     0.78830
O189        O  0.11134038  0.91782471  0.49436118    -0.57220
O190        O  0.17237609  0.85604730  0.49791411    -0.50340
C191        C  0.12638343  0.87078490  0.49632848     0.75420
Zr192      Zr  0.15040947  0.00209837  0.49403198     2.54710
O193        O  0.08802508  0.00277218  0.57302811    -0.77780
O194        O  0.08769329  0.00163072  0.41508773    -0.91200
Zr195      Zr  0.25449881  0.00436270  0.62224576     2.64680
O196        O  0.18829703  0.48285390  0.69902699    -0.96160
O197        O  0.32017588  0.00025989  0.69734029    -0.78220
O198        O  0.20092545  0.54421573  0.56576703    -0.81570
O199        O  0.20050397  0.95400751  0.56008613    -2.16280
O200        O  0.24712405  0.90339769  0.33134466    -0.64960
O201        O  0.24487821  0.84830901  0.41041668    -0.49530
C202        C  0.24339817  0.85787423  0.35467596     0.73810
O203        O  0.39620987  0.57960613  0.50026773    -0.57870
O204        O  0.33591949  0.64167599  0.51231756    -0.49850
C205        C  0.38162785  0.62660658  0.50666747     0.75610
O206        O  0.39388022  0.91067191  0.49777290    -0.69270
O207        O  0.33025320  0.85170076  0.49949205    -0.47940
C208        C  0.37689075  0.86440319  0.49915142     0.76990
O209        O  0.26124804  0.59997082  0.34093727    -0.64600
O210        O  0.26198837  0.65270770  0.42386054    -0.51790
C211        C  0.26347476  0.64511469  0.36717560     0.75370
Zr212      Zr  0.25473549  0.99448615  0.36743264     2.77540
O213        O  0.32234629  0.50648777  0.29823146    -0.95350
O214        O  0.19070415  0.52041398  0.29542493    -0.76170
Zr215      Zr  0.35866873  0.99629744  0.49528839     2.70070
O216        O  0.42273199  0.99186119  0.41837603    -0.77410
O217        O  0.41922900  0.99918469  0.57651494    -0.96500
Zr218      Zr  0.25538852  0.59729375  0.50909790     2.21500
Zr219      Zr  0.25237938  0.90156155  0.49768863     2.11130
O220        O  0.30677708  0.94551470  0.43162423    -2.45180
O221        O  0.30754416  0.55152555  0.44035313    -0.77210
O222        O  0.20052083  0.94865887  0.43172302    -0.69400
O223        O  0.30702013  0.54233341  0.56742050    -2.30360
O224        O  0.20249877  0.55423213  0.43821256    -2.26570
O225        O  0.30649958  0.95009737  0.56160379    -0.71160
H226        H  0.17868075  0.93316820  0.58427854     0.80840
H227        H  0.32796568  0.56249208  0.59414721     0.81920
H228        H  0.32658152  0.92130609  0.40839665     0.84150
H229        H  0.18281083  0.57876416  0.41601344     0.81750
H230        H  0.33443830  0.52023192  0.69677778     0.44790
H231        H  0.41000755  0.96983750  0.60233228     0.43760
H232        H  0.40551274  0.51190577  0.38711882     0.43440
H233        H  0.33778112  0.95384969  0.30191401     0.41370
H234        H  0.15955046  0.98175521  0.31205419     0.44500
H235        H  0.09680928  0.53518654  0.39250378     0.39290
H236        H  0.10378873  0.51079424  0.60895232     0.45400
H237        H  0.16529756  0.98452721  0.68764746     0.41820
H238        H  0.30070394  0.97602314  0.25448821     0.46740
H239        H  0.05586139  0.00969609  0.43573498     0.45460
H240        H  0.20528752  0.00218848  0.73483282     0.45600
H241        H  0.45123512  0.98851831  0.55788793     0.45960
C242        C  0.47785761  0.74702340  0.50340219     0.02940
C243        C  0.03028147  0.74991302  0.50094996     0.02940
C244        C  0.25454755  0.74654586  0.23684118    -0.00110
C245        C  0.22913916  0.99544654  0.00409523     0.02940
C246        C  0.27954431  0.99623246  0.00269007     0.02940
O247        O  0.09278899  0.73352227  0.83186110    -0.72910
O248        O  0.14865507  0.73221454  0.90886080    -0.51820
C249        C  0.13711150  0.72910771  0.85361293     0.80810
O250        O  0.41991929  0.88957843  0.99921322    -0.57520
O251        O  0.36044877  0.82580389  0.99881191    -0.50540
C252        C  0.37443175  0.87347868  0.99987387     0.72830
O253        O  0.09091018  0.88822174  0.99856307    -0.72070
O254        O  0.14895993  0.82317102  0.99822111    -0.52640
C255        C  0.13603750  0.87124132  0.99857858     0.78830
O256        O  0.41735179  0.74401227  0.82568762    -0.57220
O257        O  0.35918545  0.74436929  0.90012224    -0.50340
C258        C  0.37226911  0.74409231  0.84443190     0.75420
Zr259      Zr  0.00845499  0.74252698  0.87303747     2.54710
O260        O  0.01041077  0.81474288  0.80421020    -0.77780
O261        O  0.49313643  0.67624430  0.79142897    -0.91200
Zr262      Zr  0.00693458  0.85246130  0.99890502     2.64680
O263        O  0.00778437  0.91735418  0.92092742    -0.96160
O264        O  0.50496384  0.91826905  0.07443232    -0.78220
O265        O  0.05627813  0.79908746  0.93446032    -0.81570
O266        O  0.45333563  0.80007756  0.93155973    -2.16280
O267        O  0.41811015  0.60050610  0.99187408    -0.64960
O268        O  0.35937458  0.66494407  0.99548881    -0.49530
C269        C  0.37283644  0.61714556  0.99397894     0.73810
O270        O  0.09323939  0.72796554  0.16187038    -0.57870
O271        O  0.14966668  0.73412962  0.08589899    -0.49850
C272        C  0.13795561  0.72647890  0.14018221     0.75610
O273        O  0.42504871  0.74291496  0.16272608    -0.69270
O274        O  0.36380504  0.74384653  0.09141473    -0.47940
C275        C  0.37893786  0.74278188  0.14612437     0.76990
O276        O  0.08861144  0.59835068  0.00124827    -0.64600
O277        O  0.14754322  0.66253671  0.99957795    -0.51790
C278        C  0.13392915  0.61485086  0.00093824     0.75370
Zr279      Zr  0.00481632  0.63468251  0.99850339     2.77540
O280        O  0.00359257  0.56994822  0.07661659    -0.95350
O281        O  0.00563511  0.56849772  0.92001741    -0.76170
Zr282      Zr  0.00803242  0.74483345  0.12433543     2.70070
O283        O  0.00331689  0.68525618  0.20740445    -0.77410
O284        O  0.01619267  0.81844285  0.19284535    -0.96500
Zr285      Zr  0.10111299  0.74286650  0.99808225     2.21500
Zr286      Zr  0.40647732  0.74497175  0.99511903     2.11130
O287        O  0.45661452  0.69010587  0.05644349    -2.45180
O288        O  0.05412422  0.68840740  0.06155314    -0.77210
O289        O  0.45240710  0.68932273  0.92975778    -0.69400
O290        O  0.05590913  0.79970292  0.06286742    -2.30360
O291        O  0.05398004  0.68645495  0.93503020    -2.26570
O292        O  0.45676360  0.79933056  0.05841874    -0.71160
H293        H  0.43147617  0.82152368  0.90802683     0.80840
H294        H  0.07826555  0.82046219  0.08724052     0.81920
H295        H  0.43585118  0.66884583  0.08146207     0.84150
H296        H  0.07499964  0.66384990  0.91125645     0.81750
H297        H  0.03234692  0.90848851  0.10536212     0.44790
H298        H  0.48507830  0.83871495  0.17959681     0.43760
H299        H  0.00837779  0.65055978  0.18888832     0.43440
H300        H  0.47444303  0.57917209  0.09423235     0.41370
H301        H  0.47980697  0.58380033  0.88100679     0.44500
H302        H  0.03140398  0.65222947  0.80295304     0.39290
H303        H  0.03761935  0.83745593  0.81929238     0.45400
H304        H  0.47343383  0.91195223  0.89380825     0.41820
H305        H  0.99475516  0.53714827  0.05564164     0.46740
H306        H  0.50316801  0.69309042  0.75385925     0.45460
H307        H  0.99817903  0.95009845  0.94149040     0.45600
H308        H  0.00881655  0.80398852  0.23257335     0.45960
C309        C  0.30698961  0.54180050  0.99686063    -0.10900
C310        C  0.33464095  0.57850032  0.99523597    -0.12450
C311        C  0.17443283  0.90995720  0.99987015    -0.10900
C312        C  0.20150429  0.94728682  0.00186253    -0.12450
C313        C  0.33655061  0.91257480  0.00124670    -0.10900
C314        C  0.30855790  0.94908909  0.00174059    -0.12450
C315        C  0.17204416  0.57627566  0.00171159    -0.10900
C316        C  0.20012865  0.53997832  0.00179620    -0.12450
C317        C  0.29187204  0.74347063  0.18543104    -0.14050
C318        C  0.34154985  0.74136316  0.19475257    -0.29230
H319        H  0.27803314  0.74501709  0.13983111     0.14970
H320        H  0.35537746  0.74015313  0.24035137     0.15540
C321        C  0.20208559  0.75178725  0.21087518    -0.14050
C322        C  0.18013720  0.71421699  0.17861610    -0.29230
H323        H  0.18254108  0.78871458  0.21526774     0.14970
H324        H  0.19973265  0.67809693  0.16964617     0.15540
C325        C  0.23391588  0.81229133  0.31656364    -0.14050
C326        C  0.26497110  0.79634744  0.27308733    -0.29230
H327        H  0.20287208  0.78748484  0.32902943     0.14970
H328        H  0.29705071  0.82044269  0.26244845     0.15540
C329        C  0.26776149  0.69322404  0.33169898    -0.14050
C330        C  0.25747788  0.69598732  0.27300087    -0.29210
H331        H  0.27704249  0.72820266  0.35666731     0.14970
H332        H  0.24934734  0.65986500  0.24945716     0.15540
C333        C  0.44609499  0.79195176  0.50139502    -0.10900
C334        C  0.41386501  0.82444958  0.50024191    -0.12450
C335        C  0.09315316  0.67164421  0.50545755    -0.10900
C336        C  0.06155218  0.70469652  0.50345623    -0.12450
C337        C  0.05772326  0.79777817  0.49895746    -0.10900
C338        C  0.08827196  0.83195476  0.49737867    -0.12450
C339        C  0.45067020  0.69909572  0.50573776    -0.10900
C340        C  0.42000080  0.66507688  0.50694352    -0.12450
C341        C  0.33472935  0.74506195  0.79600764    -0.14050
C342        C  0.28537810  0.74678975  0.80466251    -0.29230
H343        H  0.34862267  0.74669848  0.75048601     0.14970
H344        H  0.27150468  0.74529953  0.85018690     0.15540
C345        C  0.17866795  0.71849419  0.81370870    -0.14050
C346        C  0.19572962  0.75551015  0.77800699    -0.29230
H347        H  0.20229608  0.68598941  0.82509757     0.14970
H348        H  0.17293498  0.79017938  0.77296278     0.15540
C349        C  0.25883800  0.80782143  0.72574276    -0.14050
C350        C  0.22950566  0.82549354  0.68193564    -0.29230
H351        H  0.29112614  0.83063398  0.73965330     0.14970
H352        H  0.19870298  0.80120119  0.66653986     0.15540
C353        C  0.25397872  0.71261973  0.70348576    -0.14050
C354        C  0.24926666  0.66082335  0.71096830    -0.29230
H355        H  0.26155498  0.72589211  0.65856440     0.14970
H356        H  0.24437283  0.64553433  0.75527235     0.15540
C357        C  0.75414292  0.25353099  0.75779414    -0.00110
O358        O  0.61479405  0.08556044  0.49659759    -0.72910
O359        O  0.67838051  0.14428101  0.49099927    -0.51820
C360        C  0.63171460  0.13178654  0.49343029     0.80810
O361        O  0.74837223  0.40779347  0.65801173    -0.57520
O362        O  0.74435826  0.35089141  0.57853525    -0.50540
C363        C  0.74390394  0.36144110  0.63473638     0.72830
O364        O  0.75762485  0.09734692  0.65988817    -0.72070
O365        O  0.76024191  0.14977541  0.57842743    -0.52640
C366        C  0.76052522  0.14260686  0.63455360     0.78830
O367        O  0.61138181  0.41817343  0.49077960    -0.57220
O368        O  0.67227806  0.35623541  0.48579352    -0.50340
C369        C  0.62633335  0.37107513  0.48768526     0.75420
Zr370      Zr  0.65027328  0.50262924  0.49460500     2.54710
O371        O  0.58837071  0.50022770  0.57406465    -0.77780
O372        O  0.58714178  0.50436189  0.41623087    -0.91200
Zr373      Zr  0.75399122  0.49983205  0.62317074     2.64680
O374        O  0.68744135  0.01126594  0.70135689    -0.96160
O375        O  0.82000535  0.49452323  0.69775345    -0.78220
O376        O  0.70178391  0.05129366  0.56037043    -0.81570
O377        O  0.70110030  0.45146732  0.55654129    -2.16280
O378        O  0.75197915  0.41998880  0.32229460    -0.64960
O379        O  0.75101405  0.35670035  0.39282472    -0.49530
C380        C  0.75127392  0.37215802  0.33829526     0.73810
O381        O  0.89756194  0.07812456  0.49588996    -0.57870
O382        O  0.83643407  0.13985416  0.49391025    -0.49850
C383        C  0.88245411  0.12516731  0.49441188     0.75610
O384        O  0.89337046  0.41136600  0.49384177    -0.69270
O385        O  0.83005283  0.35206061  0.48977926    -0.47940
C386        C  0.87664313  0.36491585  0.49146869     0.76990
O387        O  0.76918157  0.07836778  0.32834477    -0.64600
O388        O  0.76718623  0.13973187  0.40293831    -0.51790
C389        C  0.77229716  0.12562019  0.34844390     0.75370
Zr390      Zr  0.75472793  0.50666335  0.36814191     2.77540
O391        O  0.81969193  0.97998779  0.29515149    -0.95350
O392        O  0.68913968  0.99714228  0.29744899    -0.76170
Zr393      Zr  0.85812623  0.49738673  0.49622459     2.70070
O394        O  0.92257122  0.49413356  0.41970590    -0.77410
O395        O  0.91812255  0.49743085  0.57804789    -0.96500
Zr396      Zr  0.75642057  0.09438405  0.49379477     2.21500
Zr397      Zr  0.75208586  0.40183059  0.48929604     2.11130
O398        O  0.80590098  0.45205591  0.42815002    -2.45180
O399        O  0.80907075  0.04198619  0.43310901    -0.77210
O400        O  0.70095751  0.45439247  0.42746721    -0.69400
O401        O  0.80758043  0.04798867  0.56169335    -2.30360
O402        O  0.70265455  0.04550182  0.43009359    -2.26570
O403        O  0.80501561  0.44789831  0.55781922    -0.71160
H404        H  0.67948456  0.42923233  0.57931852     0.80840
H405        H  0.82879801  0.07110971  0.58464362     0.81920
H406        H  0.82620040  0.42990608  0.40290694     0.84150
H407        H  0.68328783  0.06786952  0.40469071     0.81750
H408        H  0.84582118  0.02241028  0.68570942     0.44790
H409        H  0.90857878  0.46730462  0.60248431     0.43760
H410        H  0.90561967  0.00091496  0.38739915     0.43440
H411        H  0.83995377  0.47525034  0.30017294     0.41370
H412        H  0.65989473  0.49337425  0.31203166     0.44500
H413        H  0.59593227  0.02960367  0.39282811     0.39290
H414        H  0.60223403  0.02261055  0.60749060     0.45400
H415        H  0.66569697  0.47422733  0.68753198     0.41820
H416        H  0.80174750  0.49800441  0.25437937     0.46740
H417        H  0.55536445  0.51139551  0.43747461     0.45460
H418        H  0.70553573  0.49037360  0.73560183     0.45600
H419        H  0.95020437  0.48719799  0.55929061     0.45960
C420        C  0.97769330  0.24681548  0.49071914     0.02940
C421        C  0.53067685  0.24973667  0.48948804     0.02940
C422        C  0.75596946  0.24238838  0.24600245    -0.00110
C423        C  0.72915597  0.49538052  0.99412770     0.02940
C424        C  0.77952262  0.49558261  0.99426473     0.02940
O425        O  0.59902281  0.23999265  0.84330586    -0.72910
O426        O  0.65202067  0.23697237  0.92340046    -0.51820
C427        C  0.64291272  0.23638775  0.86728398     0.80810
O428        O  0.91929022  0.38941064  0.99769449    -0.57520
O429        O  0.86107745  0.32468438  0.99136625    -0.50540
C430        C  0.87414295  0.37261116  0.99468742     0.72830
O431        O  0.59042703  0.38925763  0.99994591    -0.72070
O432        O  0.64878946  0.32478203  0.00675917    -0.52640
C433        C  0.63558346  0.37246804  0.00217509     0.78830
O434        O  0.92910387  0.24322009  0.82367091    -0.57220
O435        O  0.86743020  0.24517600  0.89393146    -0.50340
C436        C  0.88269769  0.24436410  0.83966864     0.75420
Zr437      Zr  0.51142854  0.24303240  0.87917366     2.54710
O438        O  0.51527220  0.31246447  0.80678860    -0.77780
O439        O  0.01515001  0.17718521  0.79523145    -0.91200
Zr440      Zr  0.50618749  0.35426804  0.00233514     2.64680
O441        O  0.50669413  0.41751430  0.92256172    -0.96160
O442        O  0.00239504  0.42148558  0.07590701    -0.78220
O443        O  0.55760153  0.29888034  0.94346114    -0.81570
O444        O  0.95944281  0.29979129  0.93035632    -2.16280
O445        O  0.91943808  0.09990027  0.99212368    -0.64960
O446        O  0.86137245  0.16436318  0.98359031    -0.49530
C447        C  0.87437309  0.11655738  0.98719664     0.73810
O448        O  0.58290885  0.24533472  0.17851873    -0.57870
O449        O  0.64375541  0.24752428  0.10744637    -0.49850
C450        C  0.62882557  0.24640276  0.16207779     0.75610
O451        O  0.90602599  0.23920777  0.15741599    -0.69270
O452        O  0.85575956  0.23496544  0.07493382    -0.47940
C453        C  0.86326205  0.23374351  0.13136731     0.76990
O454        O  0.58876345  0.10004932  0.00772420    -0.64600
O455        O  0.64790605  0.16398488  0.01306673    -0.51790
C456        C  0.63425852  0.11621838  0.00993017     0.75370
Zr457      Zr  0.50474788  0.13709725  0.00668237     2.77540
O458        O  0.50376823  0.07250666  0.08490438    -0.95350
O459        O  0.50546047  0.07084113  0.92822645    -0.76170
Zr460      Zr  0.50198273  0.24939657  0.12981068     2.70070
O461        O  0.49013988  0.18184938  0.20326172    -0.77410
O462        O  0.50951952  0.31892710  0.20393515    -0.96500
Zr463      Zr  0.60147926  0.24481175  0.01130856     2.21500
Zr464      Zr  0.90860313  0.24449101  0.98924364     2.11130
O465        O  0.95143306  0.19013683  0.05731233    -2.45180
O466        O  0.55173257  0.19114495  0.07270883    -0.77210
O467        O  0.95966019  0.18883657  0.92967249    -0.69400
O468        O  0.55252953  0.30297797  0.07005774    -2.30360
O469        O  0.55583568  0.18892381  0.94535492    -2.26570
O470        O  0.94992102  0.30119735  0.05792270    -0.71160
H471        H  0.93921374  0.32091288  0.90450187     0.80840
H472        H  0.57348276  0.32477931  0.09500979     0.81920
H473        H  0.92877047  0.16825075  0.07904734     0.84150
H474        H  0.57788801  0.16670722  0.92245703     0.81750
H475        H  0.53210293  0.41196031  0.10759444     0.44790
H476        H  0.95562814  0.33934654  0.17925281     0.43760
H477        H  0.51086783  0.15256340  0.18851183     0.43440
H478        H  0.97045946  0.07855755  0.09901234     0.41370
H479        H  0.99015748  0.08638790  0.88512550     0.44500
H480        H  0.54044932  0.15149121  0.81507326     0.39290
H481        H  0.53693607  0.33913998  0.82575581     0.45400
H482        H  0.97570031  0.41110387  0.89605019     0.41820
H483        H  0.49616573  0.03943711  0.06378618     0.46740
H484        H  0.02997559  0.19463373  0.76037627     0.45460
H485        H  0.49863446  0.45093038  0.94263684     0.45600
H486        H  0.49429252  0.30484043  0.24054953     0.45960
C487        C  0.80795767  0.04155593  0.99009059    -0.10900
C488        C  0.83586209  0.07806724  0.98735052    -0.12450
C489        C  0.67384557  0.41089335  0.99924202    -0.10900
C490        C  0.70121835  0.44773195  0.99662515    -0.12450
C491        C  0.83576779  0.41126566  0.99495405    -0.10900
C492        C  0.80808615  0.44807501  0.99495989    -0.12450
C493        C  0.67253567  0.07727061  0.00716949    -0.10900
C494        C  0.70084518  0.04100221  0.00290914    -0.12450
C495        C  0.80703463  0.24927255  0.21684371    -0.14050
C496        C  0.81895887  0.22257383  0.16716948    -0.29230
H497        H  0.83305911  0.27813444  0.23437542     0.14970
H498        H  0.79198298  0.19547462  0.14808369     0.15540
C499        C  0.71543531  0.25159436  0.19930043    -0.14050
C500        C  0.66654432  0.24505675  0.21016305    -0.29230
H501        H  0.72671805  0.26200562  0.15443179     0.14970
H502        H  0.65423647  0.23632339  0.25511170     0.15540
C503        C  0.75219130  0.33306215  0.28917827    -0.14050
C504        C  0.75036300  0.28143036  0.29766844    -0.29230
H505        H  0.75611080  0.34724999  0.24397573     0.14970
H506        H  0.74567537  0.26708207  0.34270453     0.15540
C507        C  0.78461983  0.16835937  0.30850000    -0.14050
C508        C  0.75145009  0.18708995  0.26947029    -0.29210
H509        H  0.81597170  0.19276831  0.32179279     0.14970
H510        H  0.71887450  0.16369577  0.25809224     0.15540
C511        C  0.94584153  0.29196021  0.49008650    -0.10900
C512        C  0.91379965  0.32484545  0.49050058    -0.12450
C513        C  0.59465663  0.17190578  0.49224439    -0.10900
C514        C  0.56246095  0.20459235  0.49109875    -0.12450
C515        C  0.55790274  0.29776881  0.48794852    -0.10900
C516        C  0.58822231  0.33220041  0.48712251    -0.12450
C517        C  0.95063477  0.19870024  0.49276394    -0.10900
C518        C  0.92043631  0.16415228  0.49358740    -0.12450
C519        C  0.84395497  0.24513825  0.79235091    -0.14050
C520        C  0.79499680  0.25211376  0.80531876    -0.29230
H521        H  0.85556119  0.24066292  0.74613083     0.14970
H522        H  0.78410930  0.25755977  0.85170541     0.15540
C523        C  0.68696913  0.22735388  0.82949888    -0.14050
C524        C  0.70322038  0.26077828  0.78823369    -0.29230
H525        H  0.71109094  0.19552682  0.84247376     0.14970
H526        H  0.68044849  0.29456775  0.77846869     0.15540
C527        C  0.76436136  0.30127740  0.71827899    -0.14050
C528        C  0.73397212  0.31618233  0.67367303    -0.29230
H529        H  0.79692934  0.32530527  0.72778319     0.14970
H530        H  0.70255033  0.29141346  0.66171513     0.15540
C531        C  0.75370092  0.20003111  0.72578888    -0.14050
C532        C  0.76549953  0.19231151  0.66846144    -0.29230
H533        H  0.74336875  0.16622462  0.75141830     0.14970
H534        H  0.77716572  0.22537259  0.64249950     0.15540
C535        C  0.75530129  0.75110540  0.76559118    -0.00110
O536        O  0.61413757  0.58743587  0.50146538    -0.72910
O537        O  0.67726755  0.64707456  0.50221473    -0.51820
C538        C  0.63073240  0.63383502  0.50301796     0.80810
O539        O  0.74613667  0.91321556  0.66889453    -0.57520
O540        O  0.74731623  0.85100775  0.59495255    -0.50540
C541        C  0.74436420  0.86523563  0.64986965     0.72830
O542        O  0.75786122  0.59289362  0.66404526    -0.72070
O543        O  0.76001456  0.64947323  0.58647928    -0.52640
C544        C  0.76044119  0.63959498  0.64186459     0.78830
O545        O  0.61087894  0.91614964  0.49672182    -0.57220
O546        O  0.67126946  0.85385794  0.50338541    -0.50340
C547        C  0.62547523  0.86909415  0.50001431     0.75420
Zr548      Zr  0.65031446  0.99988271  0.49684306     2.54710
O549        O  0.58716060  0.00145279  0.57494527    -0.77780
O550        O  0.58834208  0.99876747  0.41705037    -0.91200
Zr551      Zr  0.75307993  0.00307274  0.62669821     2.64680
O552        O  0.68887545  0.50264457  0.69892668    -0.96160
O553        O  0.81815536  0.00184108  0.70271310    -0.78220
O554        O  0.70176621  0.55103957  0.56156450    -0.81570
O555        O  0.69977772  0.95185291  0.56426007    -2.16280
O556        O  0.74712835  0.90026318  0.33534908    -0.64960
O557        O  0.74307538  0.84531058  0.41449238    -0.49530
C558        C  0.74221286  0.85480843  0.35849760     0.73810
O559        O  0.89786837  0.58075412  0.49600443    -0.57870
O560        O  0.83704775  0.64286201  0.50048815    -0.49850
C561        C  0.88296573  0.62778465  0.49852504     0.75610
O562        O  0.89373797  0.90907691  0.50287128    -0.69270
O563        O  0.83066231  0.84936200  0.50339783    -0.47940
C564        C  0.87717379  0.86268735  0.50317497     0.76990
O565        O  0.76141116  0.59813850  0.33336253    -0.64600
O566        O  0.76252460  0.65267506  0.41436068    -0.51790
C567        C  0.76409243  0.64385865  0.35823891     0.75370
Zr568      Zr  0.75560172  0.99116138  0.37133966     2.77540
O569        O  0.81958958  0.50643821  0.29201871    -0.95350
O570        O  0.68792492  0.51325021  0.29477662    -0.76170
Zr571      Zr  0.85816951  0.99416091  0.50070458     2.70070
O572        O  0.92258523  0.98941013  0.42421424    -0.77410
O573        O  0.91842785  0.99738385  0.58222132    -0.96500
Zr574      Zr  0.75622318  0.59865934  0.49902422     2.21500
Zr575      Zr  0.75199344  0.89813108  0.50323541     2.11130
O576        O  0.80661292  0.94249793  0.43726929    -2.45180
O577        O  0.80934436  0.55135178  0.43387647    -0.77210
O578        O  0.70125172  0.94575472  0.43618879    -0.69400
O579        O  0.80833058  0.54822449  0.56187954    -2.30360
O580        O  0.70144728  0.55444065  0.43249998    -2.26570
O581        O  0.80538314  0.94828637  0.56684520    -0.71160
H582        H  0.67792024  0.93115679  0.58858899     0.80840
H583        H  0.82969121  0.56995410  0.58639853     0.81920
H584        H  0.82663702  0.91831183  0.41429050     0.84150
H585        H  0.68149149  0.57835006  0.40973457     0.81750
H586        H  0.84540074  0.51997010  0.68490745     0.44790
H587        H  0.90938070  0.96786891  0.60787103     0.43760
H588        H  0.90697151  0.51062931  0.38465774     0.43440
H589        H  0.83836530  0.94856636  0.30687305     0.41370
H590        H  0.66115649  0.97709865  0.31455935     0.44500
H591        H  0.59396791  0.53649851  0.39397864     0.39290
H592        H  0.60382211  0.52000631  0.60748510     0.45400
H593        H  0.66385627  0.98272666  0.69176831     0.41820
H594        H  0.80107255  0.96930210  0.25879498     0.46740
H595        H  0.55636176  0.00729139  0.43712248     0.45460
H596        H  0.70359454  0.00075415  0.73908446     0.45600
H597        H  0.95058387  0.98707912  0.56369623     0.45960
C598        C  0.97978428  0.74740264  0.50072612     0.02940
C599        C  0.52838866  0.74965936  0.50320674     0.02940
C600        C  0.75174554  0.74854921  0.23295156    -0.00110
C601        C  0.72961871  0.99361217  0.99804076     0.02940
C602        C  0.77998838  0.99385983  0.99378614     0.02940
O603        O  0.58021228  0.73870800  0.81914344    -0.72910
O604        O  0.63997882  0.74595116  0.89147534    -0.51820
C605        C  0.62563496  0.74168339  0.83684916     0.80810
O606        O  0.92241226  0.88875234  0.99823878    -0.57520
O607        O  0.86361632  0.82444671  0.99713798    -0.50540
C608        C  0.87697092  0.87229486  0.99718760     0.72830
O609        O  0.58848982  0.88875363  0.99376097    -0.72070
O610        O  0.64655430  0.82373610  0.99081580    -0.52640
C611        C  0.63370150  0.87173100  0.99291700     0.78830
O612        O  0.92658990  0.73760545  0.82886453    -0.57220
O613        O  0.86792723  0.74155500  0.90276686    -0.50340
C614        C  0.88142223  0.73878431  0.84755105     0.75420
Zr615      Zr  0.49978169  0.74428274  0.86749872     2.54710
O616        O  0.50029160  0.81469107  0.79624621    -0.77780
O617        O  0.00584951  0.67832041  0.79231016    -0.91200
Zr618      Zr  0.50390431  0.85321390  0.99459112     2.64680
O619        O  0.50350906  0.91949741  0.91823059    -0.96160
O620        O  0.00624683  0.91929246  0.07674023    -0.78220
O621        O  0.55006374  0.80034394  0.92685993    -0.81570
O622        O  0.95913112  0.79826462  0.93458787    -2.16280
O623        O  0.92013228  0.60012960  0.99537693    -0.64960
O624        O  0.86237262  0.66540180  0.99710179    -0.49530
C625        C  0.87506991  0.61739776  0.99561402     0.73810
O626        O  0.59455190  0.73290073  0.15289205    -0.57870
O627        O  0.64842835  0.73367319  0.07377100    -0.49850
C628        C  0.63850178  0.72960876  0.12925694     0.75610
O629        O  0.92397481  0.74453214  0.16616173    -0.69270
O630        O  0.86503193  0.74536897  0.09224551    -0.47940
C631        C  0.87844816  0.74481413  0.14753613     0.76990
O632        O  0.58718900  0.60003703  0.99210828    -0.64600
O633        O  0.64563586  0.66427343  0.98419873    -0.51790
C634        C  0.63247288  0.61658933  0.98859454     0.75370
Zr635      Zr  0.50259744  0.63565487  0.99069967     2.77540
O636        O  0.50354357  0.57071366  0.06864252    -0.95350
O637        O  0.50261432  0.56991855  0.91173731    -0.76170
Zr638      Zr  0.50794080  0.74454454  0.11737489     2.70070
O639        O  0.50735324  0.68177917  0.19748982    -0.77410
O640        O  0.51506442  0.81728923  0.18730574    -0.96500
Zr641      Zr  0.59829512  0.74420028  0.98679846     2.21500
Zr642      Zr  0.91104117  0.74445473  0.99846024     2.11130
O643        O  0.95803858  0.68965685  0.06260240    -2.45180
O644        O  0.55317977  0.68937515  0.05197631    -0.77210
O645        O  0.95833479  0.68875233  0.93452817    -0.69400
O646        O  0.55460993  0.79958432  0.05489475    -2.30360
O647        O  0.54937751  0.68818800  0.92535666    -2.26570
O648        O  0.95887572  0.79962301  0.06283372    -0.71160
H649        H  0.93773400  0.81915274  0.90982493     0.80840
H650        H  0.57743722  0.81999603  0.07901737     0.81920
H651        H  0.93627334  0.66885178  0.08692668     0.84150
H652        H  0.57004323  0.66651562  0.90000339     0.81750
H653        H  0.53174736  0.90688693  0.10183272     0.44790
H654        H  0.98702085  0.84067713  0.18387932     0.43760
H655        H  0.51584042  0.64839817  0.17761014     0.43440
H656        H  0.97378051  0.57848087  0.10097134     0.41370
H657        H  0.98989055  0.58545193  0.88535779     0.44500
H658        H  0.52072895  0.65191061  0.80024887     0.39290
H659        H  0.52207439  0.84152925  0.81469760     0.45400
H660        H  0.97878312  0.90867737  0.89516022     0.41820
H661        H  0.49416169  0.53793846  0.04796257     0.46740
H662        H  0.01988713  0.69625709  0.75732194     0.45460
H663        H  0.49532583  0.95205003  0.94006338     0.45600
H664        H  0.50889590  0.80195318  0.22687964     0.45960
C665        C  0.80790982  0.54308573  0.99390481    -0.10900
C666        C  0.83622791  0.57932906  0.99439986    -0.12450
C667        C  0.67255907  0.90995295  0.99511089    -0.10900
C668        C  0.70115366  0.94603450  0.99708029    -0.12450
C669        C  0.83834001  0.91091982  0.99544067    -0.10900
C670        C  0.80928554  0.94667857  0.99398336    -0.12450
C671        C  0.67115911  0.57823076  0.98996162    -0.10900
C672        C  0.70005430  0.54246949  0.99185709    -0.12450
C673        C  0.79037334  0.74754390  0.18290410    -0.14050
C674        C  0.83964124  0.74409194  0.19435990    -0.29230
H675        H  0.77797152  0.75081986  0.13687975     0.14970
H676        H  0.85203058  0.74147236  0.24044368     0.15540
C677        C  0.69966241  0.75378307  0.20590380    -0.14050
C678        C  0.68179417  0.71869879  0.16674635    -0.29230
H679        H  0.67740957  0.78825070  0.21545957     0.14970
H680        H  0.70497742  0.68596516  0.15338035     0.15540
C681        C  0.73260592  0.80948541  0.31923286    -0.14050
C682        C  0.76138660  0.79710657  0.27204617    -0.29230
H683        H  0.70341482  0.78273594  0.33259339     0.14970
H684        H  0.79197062  0.82305660  0.26092063     0.15540
C685        C  0.76954161  0.69155006  0.32277415    -0.14050
C686        C  0.75439060  0.69651097  0.26610197    -0.29210
H687        H  0.78318775  0.72533755  0.34709148     0.14970
H688        H  0.74251238  0.66158790  0.24240423     0.15540
C689        C  0.94789451  0.79210144  0.50126692    -0.10900
C690        C  0.91473375  0.82349626  0.50242015    -0.12450
C691        C  0.59325369  0.67320405  0.50491464    -0.10900
C692        C  0.56032197  0.70492384  0.50484496    -0.12450
C693        C  0.55569188  0.79746093  0.50120455    -0.10900
C694        C  0.58688236  0.83094014  0.50031925    -0.12450
C695        C  0.95243204  0.69962325  0.50037195    -0.10900
C696        C  0.92131771  0.66609937  0.49952727    -0.12450
C697        C  0.84292671  0.73803372  0.80092979    -0.14050
C698        C  0.79492030  0.74716175  0.81357166    -0.29230
H699        H  0.85445304  0.73264814  0.75475906     0.14970
H700        H  0.78437610  0.75274126  0.86015027     0.15540
C701        C  0.66436568  0.73775049  0.79137196    -0.14050
C702        C  0.70744398  0.76334558  0.79897056    -0.29230
H703        H  0.65844999  0.71143444  0.75379914     0.14970
H704        H  0.70924775  0.79344470  0.83355142     0.15540
C705        C  0.76772073  0.79782392  0.72513401    -0.14050
C706        C  0.73301157  0.82262193  0.69204060    -0.29230
H707        H  0.80561167  0.81308229  0.72492808     0.14970
H708        H  0.69513873  0.80748727  0.69079569     0.15540
C709        C  0.75263590  0.69698562  0.73445487    -0.14050
C710        C  0.76590017  0.68847716  0.67768843    -0.29230
H711        H  0.74024944  0.66410513  0.76046173     0.14970
H712        H  0.77896345  0.72157713  0.65262646     0.15540
loop_ 
_geom_bond_atom_site_label_1 
_geom_bond_atom_site_label_2 
_geom_bond_distance 
_geom_bond_site_symmetry_2 
_ccdc_geom_bond_type 
C1          C164   1.536       .  S
C1          C168   1.532       .  S
C1          C171   1.546       .  S
C1          C175   1.546       .  S
O2            C4   1.276       .  A
O2         Zr192   2.397       .  S
O3            C4   1.292       .  A
O3          Zr40   2.458       .  S
C4          C157   1.431       .  S
O5            C7   1.293       .  A
O5          Zr17   2.471       .  S
O6            C7   1.290       .  A
O6          Zr41   2.441       .  S
C7          C172   1.486       .  S
O8           C10   1.300       .  A
O8         Zr195   2.503       .  S
O9           C10   1.279       .  A
O9          Zr40   2.387       .  S
C10         C176   1.481       .  S
O11          C13   1.279       .  A
O11         Zr14   2.408       .  S
O12          C13   1.289       .  A
O12         Zr41   2.442       .  S
C13         C160   1.427       .  S
Zr14        O180   2.408       .  S
Zr14         O15   2.434       .  S
Zr14         O16   2.436       .  S
Zr14         O21   2.367       .  S
Zr14         O44   2.367       .  S
Zr14        O198   2.372       .  S
Zr14        O224   2.369       .  S
O15         H236   0.990       .  S
O16          H61   0.990       .  S
O16         H235   0.990       .  S
Zr17        O186   2.471       .  S
Zr17         O19   2.435       .  S
Zr17        O196   2.436       .  S
Zr17         O21   2.375       .  S
Zr17         O47   2.379       .  S
Zr17        O198   2.378       .  S
Zr17        O223   2.372       .  S
O18        Zr195   2.435       .  S
O18         H237   0.990   1_545  S
O18         H240   0.990       .  S
O19         H230   0.990       .  S
O20         Zr40   2.379       .  S
O20        Zr192   2.376       .  S
O20        Zr195   2.384       .  S
O21         Zr41   2.388       .  S
O21          H48   0.966       .  S
O22          C24   1.294       .  A
O22         Zr34   2.473       .  S
O23          C24   1.292       .  A
O23         Zr41   2.443       .  S
C24         C147   1.495       .  S
O25          C27   1.278       .  A
O25        Zr215   2.406   1_545  S
O26          C27   1.289       .  A
O26         Zr40   2.443       .  S
C27         C162   1.428       .  S
O28          C30   1.278       .  A
O28         Zr37   2.405       .  S
O29          C30   1.291       .  A
O29         Zr41   2.452       .  S
C30         C156   1.431       .  S
O31          C33   1.293       .  A
O31        Zr212   2.473   1_545  S
O32          C33   1.281       .  A
O32         Zr40   2.399       .  S
C33         C151   1.468       .  S
Zr34        O209   2.489       .  S
Zr34        O213   2.436       .  S
Zr34        O214   2.434       .  S
Zr34         O42   2.382       .  S
Zr34         O44   2.379       .  S
Zr34        O221   2.373       .  S
Zr34        O224   2.372       .  S
O35        Zr212   2.435       .  S
O35         H233   0.990       .  S
O35         H238   0.990       .  S
O36        Zr212   2.434       .  S
O36         H234   0.990       .  S
Zr37        O203   2.408       .  S
Zr37         O38   2.434       .  S
Zr37         O39   2.435       .  S
Zr37         O42   2.372       .  S
Zr37         O47   2.370       .  S
Zr37        O221   2.365       .  S
Zr37        O223   2.369       .  S
O38         H232   0.990       .  S
O39          H53   0.990       .  S
O39          H63   0.990       .  S
Zr40         O43   2.375       .  S
Zr40         O45   2.382       .  S
Zr40         O46   2.380       .  S
Zr41         O42   2.390       .  S
Zr41         O44   2.386       .  S
Zr41         O47   2.384       .  S
O42          H50   0.966       .  S
O43        Zr212   2.374   1_545  S
O43        Zr215   2.368   1_545  S
O45        Zr195   2.374       .  S
O45        Zr215   2.362   1_545  S
O45          H49   0.966       .  S
O46        Zr192   2.374       .  S
O46        Zr212   2.380   1_545  S
O46          H51   0.966       .  S
H52         O197   0.990       .  S
H54         O216   0.990   1_545  S
H55         O213   0.990       .  S
H56         O214   0.990       .  S
H57         O194   0.990       .  S
H58         O193   0.990       .  S
H59         O196   0.990       .  S
H60         O213   0.990       .  S
H62         O196   0.990       .  S
C64         C155   1.440       .  S
C64         C161   1.436       .  S
C64         C421   1.356       .  D
C65         C158   1.440       .  S
C65         C159   1.434       .  S
C65         C420   1.356   1_455  D
C66         C139   1.528       .  S
C66         C143   1.522       .  S
C66         C148   1.547       .  S
C66         C152   1.531       .  S
C67         C134   1.442       .  S
C67         C316   1.438       .  S
C67          C68   1.346   1_554  D
C68         C136   1.438       .  S
C68         C309   1.441       .  S
O69          C71   1.293       .  A
O69         Zr81   2.471       .  S
O70          C71   1.282       .  A
O70        Zr107   2.404   1_556  S
C71         C167   1.468       .  S
O72          C74   1.286   1_554  A
O72        Zr440   2.441       .  S
O73          C74   1.282       .  A
O73        Zr108   2.409   1_556  S
C74         C135   1.426       .  S
O75          C77   1.286       .  A
O75         Zr84   2.439   1_554  S
O76          C77   1.283       .  A
O76        Zr107   2.417       .  S
C77         C133   1.431       .  S
O78          C80   1.290       .  A
O78        Zr437   2.453       .  S
O79          C80   1.292       .  A
O79        Zr108   2.445   1_556  S
C80         C163   1.489       .  S
Zr81        O434   2.469   1_455  S
Zr81         O82   2.434       .  S
Zr81        O439   2.435       .  S
Zr81         O87   2.377       .  S
Zr81        O113   2.376       .  S
Zr81        O444   2.374   1_455  S
Zr81        O467   2.379   1_455  S
O82         H125   0.990       .  S
O83        Zr437   2.435       .  S
O83         H128   0.990       .  S
O83         H480   0.990       .  S
Zr84        O428   2.430   1_455  S
Zr84         O85   2.436       .  S
Zr84        O442   2.436   1_556  S
Zr84         O87   2.371       .  S
Zr84        O112   2.366   1_556  S
Zr84        O444   2.371   1_455  S
Zr84        O470   2.379   1_456  S
O85         H129   0.990   1_455  S
O85         H482   0.990   1_455  S
O86        Zr440   2.435       .  S
O86         H475   0.990       .  S
O87        Zr107   2.381   1_556  S
O88        Zr108   2.392   1_556  S
O88        Zr437   2.377       .  S
O88        Zr440   2.365   1_556  S
O88         H115   0.966       .  S
O89          C91   1.286       .  A
O89        Zr457   2.441       .  S
O90          C91   1.284   1_556  A
O90        Zr108   2.418   1_556  S
C91         C132   1.431       .  S
O92          C94   1.286       .  A
O92        Zr104   2.443   1_455  S
O93          C94   1.288       .  A
O93        Zr107   2.416       .  S
C94         C144   1.480       .  S
O95          C97   1.280       .  A
O95        Zr460   2.412       .  S
O96          C97   1.294       .  A
O96        Zr108   2.460       .  S
C97         C140   1.474       .  S
O98         C100   1.285       .  A
O98        Zr101   2.436   1_554  S
O99         C100   1.284       .  A
O99        Zr107   2.424       .  S
C100        C137   1.433       .  S
Zr101       O445   2.433   1_455  S
Zr101       O102   2.435   1_556  S
Zr101       O103   2.434       .  S
Zr101       O110   2.376   1_556  S
Zr101       O113   2.358       .  S
Zr101       O465   2.361   1_456  S
Zr101       O467   2.376   1_455  S
O102        H127   0.990   1_455  S
O102        H478   0.990   1_455  S
O103        H479   0.990   1_455  S
Zr104       O451   2.457       .  S
Zr104       O105   2.433       .  S
Zr104       O106   2.435       .  S
Zr104       O110   2.385   1_655  S
Zr104       O112   2.376   1_655  S
Zr104       O465   2.369       .  S
Zr104       O470   2.373       .  S
O105        H121   0.990   1_655  S
O106        H130   0.990       .  S
O106        H476   0.990       .  S
Zr107       O110   2.376       .  S
Zr107       O112   2.379       .  S
Zr107       O113   2.380   1_554  S
Zr108       O109   2.384       .  S
Zr108       O111   2.386   1_554  S
Zr108       O114   2.378       .  S
O109       Zr457   2.373       .  S
O109       Zr460   2.376       .  S
O109        H117   0.966       .  S
O111       Zr437   2.385       .  S
O111       Zr457   2.372   1_556  S
O112        H116   0.966       .  S
O113        H118   0.965       .  S
O114       Zr440   2.365       .  S
O114       Zr460   2.371       .  S
H119        O442   0.990       .  S
H120        O462   0.990       .  S
H122        O458   0.990       .  S
H123        O459   0.990       .  S
H124        O439   0.990       .  S
H126        O441   0.990       .  S
C131        C246   1.443   1_545  S
C131        C132   1.204       .  T
C133        C134   1.203       .  T
C135        C136   1.201       .  T
C137        C138   1.205       .  T
C138        C245   1.445   1_545  S
C139        C140   1.338       .  D
C139        H141   1.090       .  S
C140        H142   1.085       .  S
C143        C144   1.345       .  D
C143        H145   1.089       .  S
C144        H146   1.086       .  S
C147        C148   1.353       .  D
C147        H149   1.085       .  S
C148        H150   1.087       .  S
C151        C152   1.344       .  D
C151        H153   1.086       .  S
C152        H154   1.087       .  S
C155        C156   1.204       .  T
C157        C158   1.205       .  T
C159        C160   1.201       .  T
C161        C162   1.202       .  T
C163        C164   1.349       .  D
C163        H165   1.087       .  S
C164        H166   1.087       .  S
C167        C168   1.344       .  D
C167        H169   1.087       .  S
C168        H170   1.088       .  S
C171        C172   1.352       .  D
C171        H173   1.088       .  S
C172        H174   1.086       .  S
C175        C176   1.342       .  D
C175        H177   1.087       .  S
C176        H178   1.084       .  S
C179        C342   1.532       .  S
C179        C346   1.523       .  S
C179        C349   1.534       .  S
C179        C353   1.547       .  S
O180        C182   1.279       .  A
O181        C182   1.289       .  A
O181       Zr218   2.443       .  S
C182        C335   1.427       .  S
O183        C185   1.297       .  A
O183       Zr195   2.494   1_565  S
O184        C185   1.277       .  A
O184       Zr219   2.374       .  S
C185        C350   1.464       .  S
O186        C188   1.293       .  A
O187        C188   1.289       .  A
O187       Zr218   2.433       .  S
C188        C354   1.494       .  S
O189        C191   1.279       .  A
O189       Zr192   2.411   1_565  S
O190        C191   1.288       .  A
O190       Zr219   2.440       .  S
C191        C338   1.429       .  S
Zr192       O193   2.435       .  S
Zr192       O194   2.436       .  S
Zr192       O199   2.360   1_545  S
Zr192       O222   2.366   1_545  S
O194        H239   0.990       .  S
Zr195       O197   2.434       .  S
Zr195       O199   2.378   1_545  S
Zr195       O225   2.386   1_545  S
O198       Zr218   2.379       .  S
O199       Zr219   2.380       .  S
O199        H226   0.965       .  S
O200        C202   1.295       .  A
O200       Zr212   2.481       .  S
O201        C202   1.277       .  A
O201       Zr219   2.382       .  S
C202        C325   1.465       .  S
O203        C205   1.279       .  A
O204        C205   1.289       .  A
O204       Zr218   2.439       .  S
C205        C340   1.427       .  S
O206        C208   1.277       .  A
O206       Zr215   2.401       .  S
O207        C208   1.290       .  A
O207       Zr219   2.448       .  S
C208        C334   1.428       .  S
O209        C211   1.298       .  A
O210        C211   1.284       .  A
O210       Zr218   2.408       .  S
C211        C329   1.487       .  S
Zr212       O220   2.376       .  S
Zr212       O222   2.372       .  S
Zr215       O216   2.434       .  S
Zr215       O217   2.435       .  S
Zr215       O220   2.370       .  S
Zr215       O225   2.373       .  S
O217        H231   0.990       .  S
O217        H241   0.990       .  S
Zr218       O221   2.381       .  S
Zr218       O223   2.381       .  S
Zr218       O224   2.388       .  S
Zr219       O220   2.376       .  S
Zr219       O222   2.372       .  S
Zr219       O225   2.378       .  S
O220        H228   0.966       .  S
O223        H227   0.966       .  S
O224        H229   0.966       .  S
C242        C333   1.438       .  S
C242        C339   1.435       .  S
C242        C599   1.353       .  D
C243        C336   1.436       .  S
C243        C337   1.437       .  S
C243        C598   1.352   1_455  D
C244        C317   1.527       .  S
C244        C321   1.525       .  S
C244        C326   1.535       .  S
C244        C330   1.546       .  S
C245        C312   1.445       .  S
C245        C246   1.349       .  D
C246        C314   1.442       .  S
O247        C249   1.287       .  A
O247       Zr259   2.448       .  S
O248        C249   1.277       .  A
O248       Zr285   2.384       .  S
C249        C345   1.451       .  S
O250        C252   1.285       .  A
O250       Zr618   2.436       .  S
O251        C252   1.285       .  A
O251       Zr286   2.421       .  S
C252        C313   1.429   1_556  S
O253        C255   1.284       .  A
O253       Zr262   2.428       .  S
O254        C255   1.286       .  A
O254       Zr285   2.434       .  S
C255        C311   1.432       .  S
O256        C258   1.277       .  A
O256       Zr615   2.394       .  S
O257        C258   1.297       .  A
O257       Zr286   2.475       .  S
C258        C341   1.478       .  S
Zr259       O612   2.404   1_455  S
Zr259       O260   2.435       .  S
Zr259       O617   2.436       .  S
Zr259       O265   2.366       .  S
Zr259       O622   2.379   1_455  S
Zr259       O645   2.382   1_455  S
Zr259       O291   2.357       .  S
O260        H303   0.990       .  S
O261       Zr615   2.435       .  S
O261        H658   0.990       .  S
O261        H306   0.990       .  S
Zr262       O606   2.447   1_455  S
Zr262       O263   2.436       .  S
Zr262       O620   2.435   1_556  S
Zr262       O622   2.367   1_455  S
Zr262       O265   2.382       .  S
Zr262       O290   2.381   1_556  S
Zr262       O648   2.371   1_456  S
O263        H660   0.990   1_455  S
O263        H307   0.990   1_455  S
O264       Zr618   2.436   1_554  S
O264        H653   0.990       .  S
O265       Zr285   2.372       .  S
O266       Zr615   2.371       .  S
O266       Zr618   2.375       .  S
O266       Zr286   2.383       .  S
O266        H293   0.966       .  S
O267        C269   1.285       .  A
O267       Zr635   2.435       .  S
O268        C269   1.284       .  A
O268       Zr286   2.417       .  S
C269        C310   1.427       .  S
O270        C272   1.292       .  A
O270       Zr282   2.469       .  S
O271        C272   1.275       .  A
O271       Zr285   2.370   1_554  S
C272        C322   1.456       .  S
O273        C275   1.288       .  A
O273       Zr638   2.441       .  S
O274        C275   1.291       .  A
O274       Zr286   2.444   1_554  S
C275        C318   1.481       .  S
O276        C278   1.284       .  A
O276       Zr279   2.430   1_554  S
O277        C278   1.283   1_556  A
O277       Zr285   2.415       .  S
C278        C315   1.424       .  S
Zr279       O623   2.434   1_455  S
Zr279       O280   2.436   1_556  S
Zr279       O281   2.434       .  S
Zr279       O643   2.364   1_456  S
Zr279       O288   2.365   1_556  S
Zr279       O291   2.365       .  S
Zr279       O645   2.365   1_455  S
O280        H656   0.990   1_455  S
O280        H305   0.990   1_455  S
O281        H657   0.990   1_455  S
Zr282       O629   2.437   1_455  S
Zr282       O283   2.433       .  S
Zr282       O284   2.434       .  S
Zr282       O288   2.359       .  S
Zr282       O643   2.380   1_455  S
Zr282       O648   2.382   1_455  S
Zr282       O290   2.366       .  S
O283        H299   0.990       .  S
O284        H654   0.990   1_455  S
O284        H308   0.990       .  S
Zr285       O288   2.374   1_556  S
Zr285       O290   2.380   1_556  S
Zr285       O291   2.375       .  S
Zr286       O287   2.395   1_556  S
Zr286       O289   2.379       .  S
Zr286       O292   2.393   1_556  S
O287       Zr635   2.367   1_554  S
O287       Zr638   2.379       .  S
O287        H295   0.966       .  S
O289       Zr615   2.371       .  S
O289       Zr635   2.373       .  S
O290        H294   0.966       .  S
O291        H296   0.965       .  S
O292       Zr618   2.372   1_554  S
O292       Zr638   2.379       .  S
H297        O620   0.990       .  S
H298        O640   0.990       .  S
H300        O636   0.990       .  S
H301        O637   0.990       .  S
H302        O617   0.990       .  S
H304        O619   0.990       .  S
C309        C310   1.202       .  T
C311        C312   1.204   1_556  T
C313        C314   1.203       .  T
C315        C316   1.200       .  T
C317        C318   1.346       .  D
C317        H319   1.088       .  S
C318        H320   1.087       .  S
C321        C322   1.336       .  D
C321        H323   1.089       .  S
C322        H324   1.085       .  S
C325        C326   1.342       .  D
C325        H327   1.087       .  S
C326        H328   1.088       .  S
C329        C330   1.347       .  D
C329        H331   1.083       .  S
C330        H332   1.086       .  S
C333        C334   1.203       .  T
C335        C336   1.201       .  T
C337        C338   1.202       .  T
C339        C340   1.201       .  T
C341        C342   1.335       .  D
C341        H343   1.088       .  S
C342        H344   1.087       .  S
C345        C346   1.335       .  D
C345        H347   1.083       .  S
C346        H348   1.089       .  S
C349        C350   1.341       .  D
C349        H351   1.088       .  S
C350        H352   1.088       .  S
C353        C354   1.354       .  D
C353        H355   1.087       .  S
C354        H356   1.082       .  S
C357        C520   1.526       .  S
C357        C524   1.534       .  S
C357        C527   1.551       .  S
C357        C531   1.546       .  S
O358        C360   1.278       .  A
O358       Zr548   2.405   1_545  S
O359        C360   1.290       .  A
O359       Zr396   2.453       .  S
C360        C513   1.433       .  S
O361        C363   1.303       .  A
O361       Zr373   2.513       .  S
O362        C363   1.285       .  A
O362       Zr397   2.417       .  S
C363        C528   1.491       .  S
O364        C366   1.307       .  A
O364       Zr551   2.535       .  S
O365        C366   1.274       .  A
O365       Zr396   2.361       .  S
C366        C532   1.487       .  S
O367        C369   1.279       .  A
O367       Zr370   2.413       .  S
O368        C369   1.288       .  A
O368       Zr397   2.437       .  S
C369        C516   1.429       .  S
Zr370       O536   2.394       .  S
Zr370       O371   2.435       .  S
Zr370       O372   2.436       .  S
Zr370       O554   2.377       .  S
Zr370       O377   2.358       .  S
Zr370       O400   2.367       .  S
Zr370       O580   2.377       .  S
O371        H592   0.990       .  S
O372        H591   0.990       .  S
O372        H417   0.990       .  S
Zr373       O542   2.558       .  S
Zr373       O552   2.434       .  S
Zr373       O375   2.435       .  S
Zr373       O377   2.393       .  S
Zr373       O554   2.376       .  S
Zr373       O579   2.368       .  S
Zr373       O403   2.398       .  S
O374       Zr551   2.434       .  S
O374        H593   0.990   1_545  S
O374        H596   0.990       .  S
O375        H586   0.990       .  S
O376       Zr548   2.371   1_545  S
O376       Zr551   2.384       .  S
O376       Zr396   2.376       .  S
O377       Zr397   2.392       .  S
O377        H404   0.966       .  S
O378        C380   1.289       .  A
O378       Zr390   2.448       .  S
O379        C380   1.291       .  A
O379       Zr397   2.441       .  S
C380        C503   1.483       .  S
O381        C383   1.279       .  A
O381       Zr571   2.411   1_545  S
O382        C383   1.288       .  A
O382       Zr396   2.440       .  S
C383        C518   1.429       .  S
O384        C386   1.279       .  A
O384       Zr393   2.410       .  S
O385        C386   1.290       .  A
O385       Zr397   2.449       .  S
C386        C512   1.433       .  S
O387        C389   1.296       .  A
O387       Zr568   2.485   1_545  S
O388        C389   1.277       .  A
O388       Zr396   2.380       .  S
C389        C507   1.467       .  S
Zr390       O565   2.500       .  S
Zr390       O569   2.435       .  S
Zr390       O570   2.434       .  S
Zr390       O398   2.390       .  S
Zr390       O577   2.362       .  S
Zr390       O580   2.363       .  S
Zr390       O400   2.389       .  S
O391       Zr568   2.436       .  S
O391        H589   0.990       .  S
O391        H594   0.990       .  S
O392       Zr568   2.434       .  S
O392        H590   0.990       .  S
Zr393       O559   2.398       .  S
Zr393       O394   2.434       .  S
Zr393       O395   2.435       .  S
Zr393       O577   2.375       .  S
Zr393       O398   2.364       .  S
Zr393       O403   2.368       .  S
Zr393       O579   2.368       .  S
O394        H588   0.990       .  S
O395        H409   0.990       .  S
O395        H419   0.990       .  S
Zr396       O399   2.369       .  S
Zr396       O401   2.380       .  S
Zr396       O402   2.374       .  S
Zr397       O398   2.383       .  S
Zr397       O400   2.382       .  S
Zr397       O403   2.391       .  S
O398        H406   0.966       .  S
O399       Zr568   2.371   1_545  S
O399       Zr571   2.363   1_545  S
O401       Zr551   2.375       .  S
O401       Zr571   2.362   1_545  S
O401        H405   0.966       .  S
O402       Zr548   2.374   1_545  S
O402       Zr568   2.378   1_545  S
O402        H407   0.966       .  S
H408        O553   0.990       .  S
H410        O572   0.990   1_545  S
H411        O569   0.990       .  S
H412        O570   0.990       .  S
H413        O550   0.990   1_545  S
H414        O549   0.990       .  S
H415        O552   0.990       .  S
H416        O569   0.990       .  S
H418        O552   0.990       .  S
C420        C511   1.443       .  S
C420        C517   1.437       .  S
C421        C514   1.442       .  S
C421        C515   1.437       .  S
C422        C495   1.526       .  S
C422        C499   1.527       .  S
C422        C504   1.531       .  S
C422        C508   1.531       .  S
C423        C490   1.439       .  S
C423        C672   1.444       .  S
C423        C424   1.347       .  D
C424        C665   1.441       .  S
C424        C492   1.444       .  S
O425        C427   1.294       .  A
O425       Zr437   2.479       .  S
O426        C427   1.281       .  A
O426       Zr463   2.397   1_556  S
C427        C523   1.469       .  S
O428        C430   1.284       .  A
O429        C430   1.285       .  A
O429       Zr464   2.427       .  S
C430        C491   1.431       .  S
O431        C433   1.284   1_556  A
O431       Zr440   2.428   1_556  S
O432        C433   1.285       .  A
O432       Zr463   2.422       .  S
C433        C489   1.426   1_554  S
O434        C436   1.293       .  A
O435        C436   1.283       .  A
O435       Zr464   2.402       .  S
C436        C519   1.482       .  S
Zr437       O438   2.435       .  S
Zr437       O443   2.369       .  S
Zr437       O469   2.368       .  S
O438        H481   0.990       .  S
O439        H484   0.990       .  S
Zr440       O441   2.436   1_554  S
Zr440       O443   2.372   1_554  S
Zr440       O468   2.375       .  S
O441        H485   0.990       .  S
O443       Zr463   2.385   1_556  S
O444       Zr464   2.383       .  S
O444        H471   0.966       .  S
O445        C447   1.285       .  A
O446        C447   1.284       .  A
O446       Zr464   2.423       .  S
C447        C488   1.430       .  S
O448        C450   1.283       .  A
O448       Zr460   2.426       .  S
O449        C450   1.289       .  A
O449       Zr463   2.432       .  S
C450        C500   1.476       .  S
O451        C453   1.290       .  A
O452        C453   1.281       .  A
O452       Zr464   2.402   1_554  S
C453        C496   1.463       .  S
O454        C456   1.287       .  A
O454       Zr457   2.442       .  S
O455        C456   1.285       .  A
O455       Zr463   2.426       .  S
C456        C493   1.435       .  S
Zr457       O458   2.435       .  S
Zr457       O459   2.435   1_554  S
Zr457       O466   2.376       .  S
Zr457       O469   2.366   1_554  S
O458        H483   0.990       .  S
Zr460       O461   2.434       .  S
Zr460       O462   2.435       .  S
Zr460       O466   2.370       .  S
Zr460       O468   2.363       .  S
O461        H477   0.990       .  S
O462        H486   0.990       .  S
Zr463       O466   2.374       .  S
Zr463       O468   2.376       .  S
Zr463       O469   2.385   1_554  S
Zr464       O465   2.379   1_556  S
Zr464       O467   2.379       .  S
Zr464       O470   2.379   1_556  S
O465        H473   0.965       .  S
O468        H472   0.966       .  S
O469        H474   0.965       .  S
C487        C602   1.443   1_545  S
C487        C488   1.203       .  T
C489        C490   1.201       .  T
C491        C492   1.204       .  T
C493        C494   1.206       .  T
C494        C601   1.447   1_544  S
C495        C496   1.340       .  D
C495        H497   1.088       .  S
C496        H498   1.087       .  S
C499        C500   1.341       .  D
C499        H501   1.088       .  S
C500        H502   1.087       .  S
C503        C504   1.348       .  D
C503        H505   1.087       .  S
C504        H506   1.087       .  S
C507        C508   1.340       .  D
C507        H509   1.087       .  S
C508        H510   1.088       .  S
C511        C512   1.205       .  T
C513        C514   1.205       .  T
C515        C516   1.203       .  T
C517        C518   1.203       .  T
C519        C520   1.353       .  D
C519        H521   1.087       .  S
C520        H522   1.087       .  S
C523        C524   1.345       .  D
C523        H525   1.086       .  S
C524        H526   1.087       .  S
C527        C528   1.348       .  D
C527        H529   1.088       .  S
C528        H530   1.086       .  S
C531        C532   1.336       .  D
C531        H533   1.086       .  S
C532        H534   1.085       .  S
C535        C698   1.513       .  S
C535        C702   1.515       .  S
C535        C705   1.554       .  S
C535        C709   1.553       .  S
O536        C538   1.276       .  A
O537        C538   1.291       .  A
O537       Zr574   2.454       .  S
C538        C691   1.427       .  S
O539        C541   1.304       .  A
O539       Zr551   2.521   1_565  S
O540        C541   1.282       .  A
O540       Zr575   2.406       .  S
C541        C706   1.491       .  S
O542        C544   1.311       .  A
O543        C544   1.271       .  A
O543       Zr574   2.345       .  S
C544        C710   1.492       .  S
O545        C547   1.277       .  A
O545       Zr548   2.402       .  S
O546        C547   1.289       .  A
O546       Zr575   2.442       .  S
C547        C694   1.426       .  S
Zr548       O549   2.434   1_565  S
Zr548       O550   2.436       .  S
Zr548       O555   2.369       .  S
Zr548       O578   2.367       .  S
O550        H595   0.990   1_565  S
Zr551       O553   2.434       .  S
Zr551       O555   2.383   1_545  S
Zr551       O581   2.388   1_545  S
O554       Zr574   2.376       .  S
O555       Zr575   2.386       .  S
O555        H582   0.966       .  S
O556        C558   1.295       .  A
O556       Zr568   2.478       .  S
O557        C558   1.282       .  A
O557       Zr575   2.406       .  S
C558        C681   1.475       .  S
O559        C561   1.277       .  A
O560        C561   1.289       .  A
O560       Zr574   2.443       .  S
C561        C696   1.424       .  S
O562        C564   1.275       .  A
O562       Zr571   2.392       .  S
O563        C564   1.290       .  A
O563       Zr575   2.451       .  S
C564        C690   1.425       .  S
O565        C567   1.299       .  A
O566        C567   1.276       .  A
O566       Zr574   2.375       .  S
C567        C685   1.481       .  S
Zr568       O576   2.380       .  S
Zr568       O578   2.377       .  S
Zr571       O572   2.434       .  S
Zr571       O573   2.435       .  S
Zr571       O576   2.374       .  S
Zr571       O581   2.376       .  S
O573        H587   0.990       .  S
O573        H597   0.990       .  S
Zr574       O577   2.365       .  S
Zr574       O579   2.380       .  S
Zr574       O580   2.370       .  S
Zr575       O576   2.383       .  S
Zr575       O578   2.378       .  S
Zr575       O581   2.385       .  S
O576        H584   0.966       .  S
O579        H583   0.966       .  S
O580        H585   0.966       .  S
C598        C689   1.434       .  S
C598        C695   1.432       .  S
C599        C692   1.436       .  S
C599        C693   1.434       .  S
C600        C673   1.526       .  S
C600        C677   1.525       .  S
C600        C682   1.540       .  S
C600        C686   1.544       .  S
C601        C668   1.443       .  S
C601        C602   1.351       .  D
C602        C670   1.447       .  S
O603        C605   1.279       .  A
O603       Zr615   2.414       .  S
O604        C605   1.286       .  A
O604       Zr641   2.412       .  S
C605        C701   1.457       .  S
O606        C608   1.287       .  A
O607        C608   1.284       .  A
O607       Zr642   2.422       .  S
C608        C669   1.436       .  S
O609        C611   1.286       .  A
O609       Zr618   2.441       .  S
O610        C611   1.284       .  A
O610       Zr641   2.423       .  S
C611        C667   1.432       .  S
O612        C614   1.279       .  A
O613        C614   1.291       .  A
O613       Zr642   2.434       .  S
C614        C697   1.466       .  S
Zr615       O616   2.434       .  S
Zr615       O621   2.368       .  S
Zr615       O647   2.362       .  S
O616        H659   0.990       .  S
O617        H662   0.990       .  S
Zr618       O619   2.435       .  S
Zr618       O621   2.374       .  S
Zr618       O646   2.372   1_556  S
O619        H663   0.990       .  S
O621       Zr641   2.369       .  S
O622       Zr642   2.385       .  S
O622        H649   0.966       .  S
O623        C625   1.285       .  A
O624        C625   1.283       .  A
O624       Zr642   2.418       .  S
C625        C666   1.429       .  S
O626        C628   1.292       .  A
O626       Zr638   2.468       .  S
O627        C628   1.278       .  A
O627       Zr641   2.383   1_554  S
C628        C678   1.459       .  S
O629        C631   1.287       .  A
O630        C631   1.290       .  A
O630       Zr642   2.437   1_554  S
C631        C674   1.477       .  S
O632        C634   1.287       .  A
O632       Zr635   2.442       .  S
O633        C634   1.284       .  A
O633       Zr641   2.419       .  S
C634        C671   1.432       .  S
Zr635       O636   2.436   1_556  S
Zr635       O637   2.433       .  S
Zr635       O644   2.361   1_556  S
Zr635       O647   2.367       .  S
O636        H661   0.990       .  S
Zr638       O639   2.434       .  S
Zr638       O640   2.435       .  S
Zr638       O644   2.363       .  S
Zr638       O646   2.365       .  S
O639        H655   0.990       .  S
O640        H664   0.990       .  S
Zr641       O644   2.377   1_556  S
Zr641       O646   2.383   1_556  S
Zr641       O647   2.373       .  S
Zr642       O643   2.386   1_556  S
Zr642       O645   2.380       .  S
Zr642       O648   2.383   1_556  S
O643        H651   0.966       .  S
O646        H650   0.966       .  S
O647        H652   0.966       .  S
C665        C666   1.203       .  T
C667        C668   1.204       .  T
C669        C670   1.206       .  T
C671        C672   1.204       .  T
C673        C674   1.345       .  D
C673        H675   1.088       .  S
C674        H676   1.087       .  S
C677        C678   1.339       .  D
C677        H679   1.089       .  S
C678        H680   1.086       .  S
C681        C682   1.344       .  D
C681        H683   1.087       .  S
C682        H684   1.088       .  S
C685        C686   1.341       .  D
C685        H687   1.084       .  S
C686        H688   1.086       .  S
C689        C690   1.201       .  T
C691        C692   1.202       .  T
C693        C694   1.201       .  T
C695        C696   1.200       .  T
C697        C698   1.335       .  D
C697        H699   1.087       .  S
C698        H700   1.089       .  S
C701        C702   1.337       .  D
C701        H703   1.085       .  S
C702        H704   1.090       .  S
C705        C706   1.353       .  D
C705        H707   1.087       .  S
C706        H708   1.086       .  S
C709        C710   1.337       .  D
C709        H711   1.087       .  S
C710        H712   1.086       .  S
