geometry optimzed in LAMMPS
_audit_creation_date              2020-12-01 
_audit_creation_method            'lammps2cif' 
_symmetry_space_group_name_H-M    'P1' 
_symmetry_Int_Tables_number       1 
_symmetry_cell_setting            triclinic 
loop_ 
_symmetry_equiv_pos_as_xyz 
  x,y,z 
_cell_length_a                    24.39618771 
_cell_length_b                    24.139337520400083 
_cell_length_c                    47.907700536124075 
_cell_angle_alpha                 93.41919865627922 
_cell_angle_beta                  86.0872062026795 
_cell_angle_gamma                 92.44678207432979 
loop_ 
_atom_site_label 
_atom_site_type_symbol 
_atom_site_fract_x 
_atom_site_fract_y 
_atom_site_fract_z 
_atom_site_charge 
C1          C  0.18806626  0.22512890  0.12013670     0.30800
C2          C  0.24310834  0.29946267  0.15369609     0.30800
C3          C  0.15889805  0.28117949  0.12706388    -0.05400
C4          C  0.20000871  0.20571139  0.14922108    -0.06200
C5          C  0.24563905  0.24554180  0.10731082    -0.06100
C6          C  0.18685871  0.31939530  0.14429964    -0.05400
C7          C  0.22752260  0.24246551  0.16606621    -0.06200
C8          C  0.27420641  0.28372441  0.12451457    -0.06100
C9          C  0.15758344  0.36843533  0.14513887    -0.31500
N10         N  0.11205405  0.36100814  0.12982944     0.15000
C11         C  0.11377959  0.30793019  0.11812932    -0.31500
H12         H  0.08530583  0.29036912  0.10332937     0.17000
C13         C  0.23582781  0.21493445  0.19047841    -0.30400
N14         N  0.21441402  0.16175065  0.18835142     0.13800
C15         C  0.19077780  0.15688508  0.16353583    -0.30400
C16         C  0.32036687  0.30263311  0.10793889    -0.30700
N17         N  0.32176438  0.27650941  0.08162441     0.14300
H18         H  0.34976522  0.33492559  0.11429702     0.16900
C19         C  0.27486657  0.24334466  0.08100486    -0.30700
H20         H  0.26205961  0.22015408  0.06242003     0.16900
H21         H  0.16842056  0.11982619  0.15658993     0.16900
H22         H  0.16962076  0.40770658  0.15545645     0.17000
H23         H  0.25731024  0.23193920  0.20823736     0.16900
N24         N  0.06148319  0.50596841  0.12428110    -0.35800
N25         N  0.97196530  0.42179217  0.12138752    -0.56400
N26         N  0.89172064  0.51233421  0.11972029    -0.35800
N27         N  0.98253465  0.59515754  0.11687880    -0.56400
C28         C  0.09040075  0.45860726  0.12005292     0.27800
C29         C  0.09584561  0.54970884  0.11719829     0.27800
C30         C  0.85951721  0.46610509  0.11390252     0.27800
C31         C  0.86597981  0.55717517  0.11139098     0.27800
C32         C  0.01300128  0.38889049  0.12802027     0.36400
C33         C  0.92323491  0.39243308  0.12538105     0.36400
C34         C  0.02821575  0.62569408  0.12395055     0.36400
C35         C  0.93922851  0.62939653  0.12076266     0.36400
C36         C  0.14334970  0.47258291  0.10981999    -0.21100
C37         C  0.14667903  0.52951258  0.10786471    -0.21100
C38         C  0.81303167  0.48183716  0.10177591    -0.21100
C39         C  0.81754886  0.53876679  0.09983173    -0.21100
C40         C  0.98978506  0.33853960  0.13627172    -0.22200
C41         C  0.93356994  0.34072111  0.13449392    -0.22200
C42         C  0.01321280  0.67904506  0.13292516    -0.22200
C43         C  0.95738751  0.68150859  0.13057075    -0.22200
C44         C  0.07112425  0.40323147  0.12596145    -0.17500
C45         C  0.08367629  0.60754359  0.12050705    -0.17500
C46         C  0.88368605  0.61448989  0.11494887    -0.17500
C47         C  0.86957721  0.41011365  0.11987088    -0.17500
H48         H  0.17619006  0.44457558  0.10394155     0.15400
H49         H  0.18267577  0.55315180  0.10020472     0.15400
H50         H  0.77966239  0.45489872  0.09456025     0.15400
H51         H  0.78891041  0.56371424  0.09037964     0.15400
H52         H  0.01081123  0.30378302  0.14316809     0.13700
H53         H  0.90358133  0.30798342  0.13964398     0.13700
H54         H  0.03948104  0.71292747  0.14069063     0.13700
H55         H  0.93284753  0.71734434  0.13602148     0.13700
H56         H  0.02227000  0.50908955  0.13410257     0.26900
H57         H  0.92668349  0.51348052  0.13104740     0.26900
C58         C  0.78074876  0.79071485  0.09009648     0.30800
C59         C  0.71065414  0.73380638  0.12479264     0.30800
C60         C  0.80128775  0.73314568  0.09837260    -0.05400
C61         C  0.76865935  0.82094608  0.11956218    -0.06200
C62         C  0.72258301  0.77678396  0.07956084    -0.06100
C63         C  0.76469237  0.70429775  0.11613653    -0.05400
C64         C  0.73285078  0.79121175  0.13744311    -0.06200
C65         C  0.68763875  0.74788692  0.09707160    -0.06100
C66         C  0.79191086  0.65950428  0.12498038    -0.31500
N67         N  0.84384929  0.65816094  0.11248448     0.15000
C68         C  0.85046300  0.70428699  0.09700991    -0.31500
H69         H  0.88876638  0.71666218  0.08595274     0.17000
C70         C  0.72998020  0.82146745  0.16330769    -0.30400
N71         N  0.76029998  0.86997611  0.16159748     0.13800
C72         C  0.78554882  0.86907301  0.13515285    -0.30400
C73         C  0.63769214  0.73971886  0.08440544    -0.30700
N74         N  0.64067293  0.76398909  0.05930706     0.14300
H75         H  0.60181789  0.71700997  0.09293585     0.16900
C76         C  0.69291482  0.78716637  0.05643086    -0.30700
H77         H  0.70843882  0.81068527  0.03885352     0.16900
H78         H  0.81518626  0.90054367  0.12804888     0.16900
H79         H  0.77555189  0.63083050  0.14023976     0.17000
H80         H  0.70774763  0.80903279  0.18237408     0.16900
N81         N  0.24120370  0.93097254  0.25221125    -0.35800
N82         N  0.22138167  0.01467930  0.21198610    -0.56400
N83         N  0.22006131  0.10196306  0.25885096    -0.35800
N84         N  0.22844725  0.01802173  0.29971982    -0.56400
C85         C  0.22740233  0.89800376  0.22918398     0.27800
C86         C  0.23430679  0.90006521  0.27537296     0.27800
C87         C  0.20512482  0.13088776  0.23724866     0.27800
C88         C  0.20478489  0.13124368  0.28315608     0.27800
C89         C  0.23478259  0.97064293  0.19382483     0.36400
C90         C  0.22959936  0.06187672  0.19760626     0.36400
C91         C  0.24853868  0.97563931  0.31301405     0.36400
C92         C  0.23410202  0.06518401  0.31670470     0.36400
C93         C  0.21094822  0.84599525  0.23822874    -0.21100
C94         C  0.21556142  0.84714696  0.26688292    -0.21100
C95         C  0.17935253  0.17838815  0.24799872    -0.21100
C96         C  0.17912901  0.17858395  0.27679362    -0.21100
C97         C  0.25212883  0.99028289  0.16799444    -0.22200
C98         C  0.24919633  0.04738398  0.17041860    -0.22200
C99         C  0.26791648  0.99663554  0.33829609    -0.22200
C100        C  0.25823021  0.05274620  0.34073985    -0.22200
C101        C  0.23077697  0.91298098  0.20018204    -0.17500
C102        C  0.24514489  0.91772757  0.30392796    -0.17500
C103        C  0.21743302  0.11924116  0.31080497    -0.17500
C104        C  0.21704868  0.11753541  0.20809217    -0.17500
H105        H  0.19562540  0.81081664  0.22572153     0.15400
H106        H  0.20457932  0.81295384  0.28002512     0.15400
H107        H  0.16242532  0.20992060  0.23634921     0.15400
H108        H  0.16240095  0.21043453  0.29140605     0.15400
H109        H  0.26705737  0.96634321  0.14943887     0.13700
H110        H  0.26113283  0.07503447  0.15398314     0.13700
H111        H  0.28724090  0.97403145  0.35354453     0.13700
H112        H  0.26858381  0.08123330  0.35806390     0.13700
H113        H  0.25857114  0.97110288  0.25195734     0.26900
H114        H  0.24476298  0.06768181  0.25684670     0.26900
N115        N  0.75661950  0.01799734  0.19336690    -0.35800
N116        N  0.75933077  0.93376569  0.23556068    -0.56400
N117        N  0.75771165  0.02225263  0.28126447    -0.35800
N118        N  0.74385760  0.10548984  0.23952182    -0.56400
C119        C  0.74764305  0.96988100  0.17756462     0.27800
C120        C  0.73761823  0.06070943  0.17973509     0.27800
C121        C  0.74691473  0.97578459  0.29593519     0.27800
C122        C  0.74157808  0.06717333  0.29804564     0.27800
C123        C  0.77221023  0.90201313  0.21167630     0.36400
C124        C  0.77079629  0.90390268  0.25760186     0.36400
C125        C  0.75250834  0.13670598  0.21663084     0.36400
C126        C  0.75530543  0.13908649  0.26255091     0.36400
C127        C  0.72243757  0.98222190  0.15378596    -0.21100
C128        C  0.71569890  0.03890844  0.15523757    -0.21100
C129        C  0.72318854  0.99161543  0.32217284    -0.21100
C130        C  0.71979235  0.04872728  0.32345792    -0.21100
C131        C  0.79257135  0.85235677  0.21865991    -0.22200
C132        C  0.79187017  0.85359212  0.24749628    -0.22200
C133        C  0.77064695  0.18975935  0.22525720    -0.22200
C134        C  0.77247157  0.19122080  0.25400239    -0.22200
C135        C  0.76193502  0.91508561  0.18375502    -0.17500
C136        C  0.74171771  0.11889060  0.18824088    -0.17500
C137        C  0.74740191  0.12440271  0.29128507    -0.17500
C138        C  0.75930371  0.91966698  0.28671123    -0.17500
H139        H  0.70894941  0.95321802  0.13733187     0.15400
H140        H  0.69581204  0.06105844  0.14003321     0.15400
H141        H  0.70863774  0.96481056  0.33863908     0.15400
H142        H  0.70183471  0.07355116  0.34096167     0.15400
H143        H  0.80639365  0.81850530  0.20444585     0.13700
H144        H  0.80550249  0.82091672  0.25956314     0.13700
H145        H  0.78246692  0.22389154  0.21219901     0.13700
H146        H  0.78582883  0.22670008  0.26701546     0.13700
H147        H  0.77859989  0.02200912  0.21130689     0.26900
H148        H  0.77916762  0.02376437  0.26176170     0.26900
C149        C  0.21960728  0.80378053  0.39421050     0.30800
C150        C  0.28714435  0.74335827  0.35789387     0.30800
C151        C  0.19598473  0.74550254  0.38460987    -0.05400
C152        C  0.23683382  0.83070158  0.36566088    -0.06200
C153        C  0.27657268  0.79130197  0.40542545    -0.06100
C154        C  0.22971921  0.71428909  0.36557488    -0.05400
C155        C  0.26950225  0.79900628  0.34692666    -0.06200
C156        C  0.30950767  0.76006270  0.38688268    -0.06100
C157        C  0.19664876  0.66837559  0.35664511    -0.31500
N158        N  0.14551127  0.66964042  0.37058470     0.15000
C159        C  0.14550711  0.71658903  0.38786780    -0.31500
H160        H  0.11083806  0.72921108  0.40171652     0.17000
C161        C  0.27465187  0.82631608  0.32172235    -0.30400
N162        N  0.24904420  0.87570547  0.32495462     0.13800
C163        C  0.22670077  0.87858181  0.35188985    -0.30400
C164        C  0.35759698  0.75061731  0.39988544    -0.30700
N165        N  0.35606644  0.77592595  0.42600569     0.14300
H166        H  0.39153673  0.72659819  0.39093027     0.16900
C167        C  0.30734256  0.80202363  0.42931897    -0.30700
H168        H  0.29664327  0.82803736  0.44775611     0.16900
H169        H  0.20450420  0.91374132  0.36071843     0.16900
H170        H  0.20825922  0.63730653  0.34039371     0.17000
H171        H  0.29577924  0.81111329  0.30236013     0.16900
N172        N  0.07660634  0.52584874  0.36717993    -0.35800
N173        N  0.98390632  0.44151644  0.37088859    -0.56400
N174        N  0.90582215  0.52922518  0.36580385    -0.35800
N175        N  0.99737263  0.61469394  0.36765052    -0.56400
C176        C  0.10243533  0.48030119  0.37432193     0.27800
C177        C  0.10958595  0.57144083  0.37334069     0.27800
C178        C  0.87081070  0.48614348  0.37321901     0.27800
C179        C  0.87802701  0.57698006  0.37061179     0.27800
C180        C  0.02750159  0.40774385  0.36632445     0.36400
C181        C  0.93729419  0.40973231  0.36637582     0.36400
C182        C  0.04557974  0.64491287  0.36326645     0.36400
C183        C  0.95558000  0.64651959  0.36109243     0.36400
C184        C  0.15190352  0.49748272  0.38534000    -0.21100
C185        C  0.15647868  0.55450794  0.38460692    -0.21100
C186        C  0.82079144  0.50707308  0.38322515    -0.21100
C187        C  0.82528730  0.56395488  0.38158305    -0.21100
C188        C  0.00837754  0.35451546  0.35870996    -0.22200
C189        C  0.95183001  0.35575657  0.35865831    -0.22200
C190        C  0.03418508  0.69595045  0.35379495    -0.22200
C191        C  0.97780126  0.69692622  0.35228178    -0.22200
C192        C  0.08406395  0.42337612  0.37027245    -0.17500
C193        C  0.09963656  0.62791485  0.36848188    -0.17500
C194        C  0.89760997  0.63183318  0.36417753    -0.17500
C195        C  0.88174345  0.42824625  0.37009814    -0.17500
H196        H  0.18155612  0.47177318  0.39354591     0.15400
H197        H  0.19033031  0.58054625  0.39197103     0.15400
H198        H  0.78469853  0.48388285  0.39114814     0.15400
H199        H  0.79323634  0.59252654  0.38805148     0.15400
H200        H  0.03264238  0.31841672  0.35346051     0.13700
H201        H  0.92478916  0.32073184  0.35314865     0.13700
H202        H  0.06361571  0.72868947  0.34795631     0.13700
H203        H  0.95594347  0.73096319  0.34520673     0.13700
H204        H  0.04092376  0.52524436  0.35643524     0.26900
H205        H  0.94449677  0.52590810  0.35539851     0.26900
C206        C  0.70288307  0.30832935  0.34945284     0.30800
C207        C  0.75747099  0.24894347  0.38424303     0.30800
C208        C  0.75748615  0.33720201  0.35932731    -0.05400
C209        C  0.67027424  0.29639161  0.37852495    -0.10400
C210        C  0.72082905  0.24977809  0.33792062    -0.06100
C211        C  0.78523308  0.30667974  0.37712222    -0.05400
C212        C  0.69911431  0.26622911  0.39604125    -0.06200
C213        C  0.74871153  0.21977551  0.35526276    -0.06100
C214        C  0.83172666  0.33912474  0.38444087    -0.31500
N215        N  0.83507624  0.38705601  0.37075887     0.15000
C216        C  0.78807340  0.38750040  0.35675842    -0.31500
H217        H  0.77656468  0.42256883  0.34585054     0.17000
C218        C  0.66828471  0.26426059  0.42172962    -0.30400
N219        N  0.61983589  0.29039920  0.42104340     0.13800
C220        C  0.62134237  0.31087378  0.39458978    -0.30400
C221        C  0.76269954  0.17026854  0.34010311    -0.30700
N222        N  0.74263520  0.16881585  0.31397011     0.14300
H223        H  0.78650349  0.13806283  0.34759192     0.16900
C224        C  0.71667375  0.21756350  0.31286868    -0.30700
H225        H  0.69596424  0.22915347  0.29496286     0.16900
H226        H  0.58982542  0.33590199  0.38751621     0.16900
H227        H  0.86127148  0.32937742  0.39904207     0.17000
H228        H  0.68111910  0.24577698  0.44006512     0.16900
N229        N  0.50046458  0.76920443  0.44876980    -0.35800
N230        N  0.58607566  0.76967132  0.48813932    -0.56400
N231        N  0.49394631  0.75835294  0.03583517    -0.35800
N232        N  0.41414658  0.77284107  0.49753093    -0.56400
C233        C  0.54567648  0.77983631  0.43116196     0.27800
C234        C  0.45531657  0.78435313  0.43631291     0.27800
C235        C  0.54026372  0.77057552  0.04992788     0.27800
C236        C  0.44865879  0.76743170  0.05389634     0.27800
C237        C  0.61732839  0.76036996  0.46357144     0.36400
C238        C  0.61205636  0.75650223  0.00966611     0.36400
C239        C  0.38362960  0.76191866  0.47476043     0.36400
C240        C  0.37782418  0.75222693  0.01869596     0.36400
C241        C  0.52896191  0.80216877  0.40734794    -0.21100
C242        C  0.47239995  0.80541944  0.41063946    -0.21100
C243        C  0.52368127  0.78826526  0.07724919    -0.21100
C244        C  0.46663521  0.78587058  0.07975645    -0.21100
C245        C  0.66822344  0.74273253  0.46949854    -0.22200
C246        C  0.66278695  0.73891719  0.99838024    -0.22200
C247        C  0.33425009  0.73575919  0.48335636    -0.22200
C248        C  0.32898624  0.72846309  0.00999110    -0.22200
C249        C  0.60153066  0.76925224  0.43582619    -0.17500
C250        C  0.39894818  0.77518380  0.44624970    -0.17500
C251        C  0.39175328  0.75845100  0.04758599    -0.17500
C252        C  0.59688470  0.76384735  0.03929141    -0.17500
H253        H  0.55487703  0.81543872  0.38955367     0.15400
H254        H  0.44682539  0.82135861  0.39561167     0.15400
H255        H  0.54977649  0.80235024  0.09382019     0.15400
H256        H  0.44142196  0.79748083  0.09847183     0.15400
H257        H  0.70179987  0.73134040  0.45463287     0.13700
H258        H  0.69631700  0.72502108  0.00948333     0.13700
H259        H  0.30185705  0.72044118  0.47024483     0.13700
H260        H  0.29802219  0.70686781  0.02289903     0.13700
H261        H  0.49959585  0.74783245  0.46702753     0.26900
H262        H  0.49335119  0.74042597  0.01555769     0.26900
N263        N  0.55818745  0.28803128  0.49707260    -0.35800
N264        N  0.47390423  0.29764393  0.45632091    -0.56400
N265        N  0.38582126  0.29025063  0.50387137    -0.35800
N266        N  0.46727827  0.28785426  0.04723540    -0.56400
C267        C  0.59035783  0.30070679  0.47341848     0.27800
C268        C  0.58527185  0.29719830  0.02232009     0.27800
C269        C  0.35587040  0.30207851  0.48200379     0.27800
C270        C  0.35143259  0.29240109  0.03079633     0.27800
C271        C  0.51864390  0.28638377  0.43825284     0.36400
C272        C  0.42777308  0.28538084  0.44206233     0.36400
C273        C  0.51233666  0.27509172  0.06062110     0.36400
C274        C  0.42184651  0.27436591  0.06422819     0.36400
C275        C  0.64156659  0.31945200  0.48178838    -0.21100
C276        C  0.63651295  0.31918307  0.01332609    -0.21100
C277        C  0.30529839  0.32066646  0.49305456    -0.21100
C278        C  0.30149284  0.31194458  0.02452721    -0.21100
C279        C  0.50050480  0.26645275  0.41266735    -0.22200
C280        C  0.44380369  0.26542354  0.41510078    -0.22200
C281        C  0.49491434  0.25286096  0.08596221    -0.22200
C282        C  0.43827606  0.25271939  0.08823966    -0.22200
C283        C  0.57568661  0.29359320  0.44442529    -0.17500
C284        C  0.56902464  0.28499627  0.05107851    -0.17500
C285        C  0.36557703  0.28157756  0.05861844    -0.17500
C286        C  0.37138789  0.29358957  0.45236386    -0.17500
H287        H  0.67623525  0.33397217  0.46852308     0.15400
H288        H  0.66967324  0.33291674  0.02627801     0.15400
H289        H  0.27220517  0.33457297  0.48163399     0.15400
H290        H  0.26748091  0.32301923  0.03920255     0.15400
H291        H  0.52525192  0.25206623  0.39429249     0.13700
H292        H  0.41755434  0.24998097  0.39884621     0.13700
H293        H  0.52002677  0.23683598  0.10114427     0.13700
H294        H  0.41213004  0.23660215  0.10525929     0.13700
H295        H  0.51910052  0.26901746  0.49741145     0.26900
H296        H  0.42359553  0.27153947  0.50189494     0.26900
C297        C  0.78394298  0.80917163  0.37494263     0.30800
C298        C  0.72507564  0.73967776  0.34158320     0.30800
C299        C  0.80983137  0.75286373  0.36706270    -0.05400
C300        C  0.72490227  0.79281748  0.38785045    -0.06200
C301        C  0.77122393  0.83232486  0.34679138    -0.06100
C302        C  0.78020260  0.71667236  0.35016447    -0.05400
C303        C  0.69502317  0.75511218  0.37101388    -0.06200
C304        C  0.74223603  0.79684986  0.32976060    -0.06100
C305        C  0.80941192  0.66756051  0.34750312    -0.31500
N306        N  0.85664625  0.67410354  0.36150815     0.15000
C307        C  0.85640499  0.72641541  0.37385949    -0.31500
H308        H  0.88706447  0.74372322  0.38754136     0.17000
C309        C  0.64654224  0.74085423  0.38717599    -0.30400
N310        N  0.64419427  0.77142511  0.41228620     0.13800
C311        C  0.69080692  0.80453751  0.41205409    -0.30400
C312        C  0.73498099  0.82471446  0.30550794    -0.30700
N313        N  0.75867949  0.87695470  0.30754716     0.14300
H314        H  0.71298499  0.80827195  0.28778388     0.16900
C315        C  0.78091707  0.88173822  0.33300688    -0.30700
H316        H  0.80256607  0.91871158  0.34104365     0.16900
H317        H  0.69751118  0.83637796  0.42819553     0.16900
H318        H  0.79656616  0.62911681  0.33662530     0.17000
H319        H  0.61608638  0.70917729  0.38141373     0.16900
C320        C  0.74363598  0.23419232  0.09920600     0.30800
C321        C  0.68601095  0.29437620  0.13942859     0.30800
C322        C  0.77220419  0.29136237  0.10825817    -0.05400
C323        C  0.68771657  0.25340480  0.09079186    -0.06200
C324        C  0.73200434  0.20622199  0.12743295    -0.06100
C325        C  0.74268532  0.32233265  0.12959571    -0.05400
C326        C  0.65778152  0.28242563  0.11127806    -0.06200
C327        C  0.70493328  0.23741085  0.14805460    -0.06100
C328        C  0.77615857  0.36900520  0.13639801    -0.31500
N329        N  0.82342907  0.36886522  0.11926870     0.15000
C330        C  0.82021082  0.32261844  0.10155506    -0.31500
H331        H  0.85018612  0.31351518  0.08451863     0.17000
C332        C  0.61086536  0.29894296  0.09891206    -0.30400
N333        N  0.61195367  0.28074424  0.07120858     0.13800
C334        C  0.66021419  0.25449714  0.06609874    -0.30400
C335        C  0.70768725  0.20999900  0.17292081    -0.30700
N336        N  0.73326171  0.16087693  0.16773796     0.14300
H337        H  0.69145066  0.22504126  0.19343163     0.16900
C338        C  0.74896428  0.15898231  0.13973601    -0.30700
H339        H  0.77321139  0.12663108  0.12910110     0.16900
H340        H  0.67436020  0.23672988  0.04574142     0.16900
H341        H  0.76770471  0.39993357  0.15318813     0.17000
H342        H  0.57864124  0.32347392  0.10936127     0.16900
C343        C  0.26107501  0.30853538  0.36336138     0.30800
C344        C  0.19084698  0.25672469  0.40006058     0.30800
C345        C  0.20558019  0.33757491  0.36997134    -0.05400
C346        C  0.24038158  0.24899095  0.35336922    -0.06200
C347        C  0.28286056  0.30149307  0.39250113    -0.06100
C348        C  0.16916726  0.31048435  0.38877129    -0.05400
C349        C  0.20529168  0.22133954  0.37215887    -0.06200
C350        C  0.24787225  0.27482134  0.41080017    -0.06100
C351        C  0.11908743  0.33640002  0.38886172    -0.31500
N352        N  0.12433243  0.38018263  0.37203619     0.15000
C353        C  0.17639363  0.37935308  0.35946501    -0.31500
H354        H  0.19123913  0.40635264  0.34319850     0.17000
C355        C  0.19225365  0.16926674  0.35868923    -0.30400
N356        N  0.21839177  0.16539268  0.33240067     0.13800
C357        C  0.24589801  0.21491057  0.32891556    -0.30400
C358        C  0.27637357  0.26881932  0.43487558    -0.30700
N359        N  0.32811185  0.29262003  0.43196684     0.14300
H360        H  0.26076809  0.24739685  0.45308406     0.16900
C361        C  0.33183345  0.31324485  0.40586970    -0.30700
H362        H  0.36790909  0.33494003  0.39689940     0.16900
H363        H  0.26866432  0.22548445  0.30964247     0.16900
H364        H  0.08117852  0.32387344  0.40015788     0.17000
H365        H  0.16477376  0.13716852  0.36716224     0.16900
C366        C  0.26073312  0.72781958  0.14004684     0.30800
C367        C  0.20444447  0.78637178  0.10654729     0.30800
C368        C  0.20688654  0.69902072  0.13035968    -0.05400
C369        C  0.24455322  0.78617853  0.15238517    -0.06200
C370        C  0.29324988  0.74128247  0.11109619    -0.06100
C371        C  0.17782780  0.72987926  0.11397005    -0.05400
C372        C  0.21573520  0.81694785  0.13581522    -0.06200
C373        C  0.26357865  0.77222642  0.09423492    -0.06100
C374        C  0.12988859  0.69953384  0.10815756    -0.31500
N375        N  0.12911442  0.64965172  0.12012365     0.15000
C376        C  0.17732700  0.64852483  0.13298702    -0.31500
H377        H  0.18982717  0.61374640  0.14390592     0.17000
C378        C  0.20777620  0.86822260  0.15145275    -0.30400
N379        N  0.23076015  0.86860469  0.17700006     0.13800
C380        C  0.25426648  0.81830954  0.17699670    -0.30400
C381        C  0.29728391  0.78282116  0.07010277    -0.30700
N382        N  0.34667577  0.75795529  0.07047944     0.14300
H383        H  0.28647398  0.80767353  0.05339831     0.16900
C384        C  0.34422183  0.73238854  0.09559798    -0.30700
H385        H  0.37684342  0.70803373  0.10204930     0.16900
H386        H  0.27787621  0.80564390  0.19367047     0.16900
H387        H  0.09768037  0.71316871  0.09601923     0.17000
H388        H  0.18673416  0.90295510  0.14455589     0.16900
O389        O  0.02567632  0.03242165  0.08899780    -0.74500
O390        O  0.10519316  0.05428028  0.06394184    -0.53400
C391        C  0.07623642  0.04892810  0.08697546     0.79200
O392        O  0.91641759  0.88121494  0.98108822    -0.59100
O393        O  0.84340894  0.93136989  0.98293061    -0.52100
C394        C  0.86629421  0.88794306  0.98928048     0.71200
O395        O  0.07473137  0.94025897  0.02637733    -0.73700
O396        O  0.15109602  0.96914884  0.04112004    -0.54200
C397        C  0.11412053  0.93112749  0.04072124     0.77200
O398        O  0.87458644  0.03470605  0.03372084    -0.58800
O399        O  0.80661720  0.03440663  0.00887887    -0.51900
C400        C  0.82639954  0.04987316  0.03178018     0.73800
Zr401      Zr  0.95787096  0.04961854  0.05678819     2.54700
O402        O  0.90215669  0.03073357  0.09957668    -0.79400
O403        O  0.96375981  0.14506623  0.07682583    -0.92800
Zr404      Zr  0.98864959  0.90768080  0.01196283     2.64700
O405        O  0.96005222  0.85496369  0.05261728    -0.97800
O406        O  0.02608859  0.81694067  0.99958307    -0.79800
O407        O  0.02244106  0.98294210  0.04118769    -0.83200
O408        O  0.92225278  0.97306212  0.02818060    -2.17900
O409        O  0.92551055  0.16907604  0.47062355    -0.66600
O410        O  0.85765855  0.10159344  0.47298379    -0.51100
C411        C  0.87774129  0.14844351  0.46527627     0.72200
O412        O  0.13086884  0.02854509  0.44624245    -0.59500
O413        O  0.17709276  0.00417555  0.48073788    -0.51400
C414        C  0.16566906  0.99724629  0.45526537     0.74000
O415        O  0.96295074  0.98931606  0.41203264    -0.70900
O416        O  0.88724112  0.02122425  0.43623520    -0.49500
C417        C  0.91083007  0.99076170  0.41686545     0.75400
O418        O  0.08916278  0.17374016  0.51264187    -0.66200
O419        O  0.15808555  0.11638678  0.50781660    -0.53400
C420        C  0.13680395  0.16141801  0.50239778     0.73800
Zr421      Zr  0.00698808  0.13888632  0.49060673     2.77500
O422        O  0.04962138  0.17539282  0.44792335    -0.96900
O423        O  0.98730339  0.23271852  0.50887786    -0.77800
Zr424      Zr  0.03517853  0.99861464  0.44401165     2.70100
O425        O  0.06181356  0.02630537  0.39671566    -0.79000
O426        O  0.04176275  0.90097629  0.42834533    -0.98100
Zr427      Zr  0.10293830  0.03267215  0.51295209     2.21500
Zr428      Zr  0.89904286  0.01968406  0.48533178     2.11100
O429        O  0.97212712  0.06689593  0.45989032    -2.46800
O430        O  0.07218286  0.07348856  0.47272289    -0.78800
O431        O  0.93382653  0.09376099  0.51656063    -0.71000
O432        O  0.06670368  0.95499933  0.48304000    -2.32000
O433        O  0.03650655  0.09757986  0.53078193    -2.28200
O434        O  0.96278501  0.95081351  0.46953208    -0.72800
H435        H  0.89647748  0.95019083  0.03869536     0.79200
H436        H  0.09293852  0.92773249  0.47600000     0.80300
H437        H  0.96119346  0.08433232  0.44364650     0.82600
H438        H  0.05158606  0.12240871  0.54504565     0.80200
H439        H  0.06171641  0.82494701  0.98916579     0.43200
H440        H  0.03197425  0.87926823  0.44496593     0.42200
H441        H  0.07734193  0.06468554  0.39935515     0.41800
H442        H  0.03667429  0.15028183  0.43245766     0.39800
H443        H  0.99860831  0.25658843  0.49322235     0.42900
H444        H  0.96692930  0.16792532  0.06027392     0.37700
H445        H  0.90456198  0.99022424  0.10123655     0.43800
H446        H  0.92330806  0.86798148  0.05924440     0.40200
H447        H  0.03165311  0.21080512  0.44611960     0.45100
H448        H  0.99989231  0.15037712  0.08492300     0.43900
H449        H  0.95403736  0.81606811  0.04549067     0.44000
H450        H  0.01063729  0.89313591  0.41630664     0.44400
O451        O  0.49178742  0.43093872  0.32841611    -0.74500
O452        O  0.48667638  0.35996579  0.29653993    -0.53400
C453        C  0.47061072  0.38412969  0.31986874     0.79200
O454        O  0.34085381  0.60095574  0.23708252    -0.59100
O455        O  0.41540970  0.66085890  0.23563558    -0.52100
C456        C  0.36551054  0.64725083  0.23094359     0.71200
O457        O  0.31924039  0.42368802  0.26940519    -0.73700
O458        O  0.37478089  0.35278659  0.26429951    -0.54200
C459        C  0.33153904  0.37617961  0.25790455     0.77200
O460        O  0.50998945  0.61213245  0.31629803    -0.58800
O461        O  0.49349750  0.67021444  0.28368053    -0.51900
C462        C  0.48784808  0.65571738  0.30886939     0.73800
Zr463      Zr  0.47415009  0.51730600  0.30745512     2.54700
O464        O  0.38105008  0.52580644  0.32900936    -0.79400
O465        O  0.50183754  0.53755315  0.35504735    -0.92800
Zr466      Zr  0.36038702  0.51072880  0.25283751     2.64700
O467        O  0.28381460  0.54208058  0.28432663    -0.97800
O468        O  0.29754853  0.48865667  0.21609952    -0.79800
O469        O  0.41154149  0.45899600  0.28238376    -0.83200
O470        O  0.42221459  0.56887256  0.27856109    -2.17900
O471        O  0.63450391  0.58100244  0.25344879    -0.66600
O472        O  0.57879386  0.64817074  0.24234478    -0.51100
C473        C  0.62289162  0.63172450  0.25140785     0.72200
O474        O  0.45526263  0.39564302  0.17564892    -0.59500
O475        O  0.45867216  0.33880264  0.21005855    -0.51400
C476        C  0.47875596  0.35783093  0.18716434     0.74000
O477        O  0.51272631  0.57440073  0.16948946    -0.70900
O478        O  0.50613636  0.64677114  0.20169892    -0.49500
C479        C  0.52251131  0.62527795  0.17789725     0.75400
O480        O  0.60634456  0.39233639  0.23669758    -0.66200
O481        O  0.53910232  0.33447288  0.25244172    -0.53400
C482        C  0.58887639  0.35304501  0.25228992     0.73800
Zr483      Zr  0.59017533  0.49127360  0.24568814     2.77500
O484        O  0.66753612  0.49293518  0.21087554    -0.96900
O485        O  0.65473136  0.48321435  0.28166729    -0.77800
Zr486      Zr  0.47238328  0.49159013  0.19005975     2.70100
O487        O  0.49852324  0.47499632  0.14023896    -0.79000
O488        O  0.38560519  0.51751794  0.17330514    -0.98100
Zr489      Zr  0.46470715  0.39548780  0.25281643     2.21500
Zr490      Zr  0.48961931  0.60418392  0.24480246     2.11100
O491        O  0.54272102  0.54117483  0.21500899    -2.46800
O492        O  0.52593936  0.43999566  0.21909533    -0.78800
O493        O  0.53169363  0.54774116  0.27176740    -0.71000
O494        O  0.41177770  0.44683558  0.22333370    -2.32000
O495        O  0.52882946  0.45218081  0.27928880    -2.28200
O496        O  0.42236283  0.55376782  0.21957222    -0.72800
H497        H  0.40210719  0.59811214  0.28866823     0.79200
H498        H  0.38643949  0.42305276  0.21319831     0.80300
H499        H  0.57201967  0.55845299  0.20364418     0.82600
H500        H  0.55316933  0.43260088  0.28994363     0.80200
H501        H  0.27571248  0.52212027  0.21540094     0.43200
H502        H  0.39620802  0.54183299  0.15773969     0.42200
H503        H  0.46330083  0.46967773  0.13113724     0.41800
H504        H  0.67087710  0.53156228  0.20489444     0.39800
H505        H  0.64128860  0.50850965  0.29745024     0.42900
H506        H  0.53619097  0.51759212  0.35609647     0.37700
H507        H  0.35468763  0.50992994  0.31568001     0.43800
H508        H  0.25329078  0.54539710  0.27200799     0.40200
H509        H  0.70017483  0.48898947  0.22169264     0.45100
H510        H  0.47410673  0.51743608  0.36713458     0.43900
H511        H  0.29428728  0.58090559  0.29019334     0.44000
H512        H  0.37051659  0.48291250  0.16408191     0.44400
C513        C  0.14158639  0.83760577  0.04296642    -0.11500
C514        C  0.11552798  0.88268988  0.05623130     0.05500
C515        C  0.10369087  0.88517031  0.08528824    -0.06800
C516        C  0.12974652  0.84965641  0.10100460    -0.07500
C517        C  0.16849857  0.81394893  0.08809124    -0.02100
C518        C  0.16651303  0.80089585  0.05884208     0.04700
N519        N  0.18623380  0.75065309  0.04505428     0.67300
H520        H  0.14400271  0.83218501  0.02032879     0.16200
H521        H  0.11977481  0.85051035  0.12334239     0.15900
N522        N  0.06525306  0.92222410  0.09916700     0.75000
O523        O  0.21278476  0.75371803  0.02165388    -0.38500
O524        O  0.16033262  0.70560195  0.04999764    -0.38400
O525        O  0.01477401  0.91262429  0.09596445    -0.39100
O526        O  0.07897205  0.95034412  0.12082430    -0.39200
C527        C  0.34146345  0.71328468  0.16546051    -0.11500
C528        C  0.28599632  0.70046500  0.16308223     0.05500
C529        C  0.25418312  0.68269479  0.18748522    -0.06800
C530        C  0.28055382  0.67115300  0.21117429    -0.07500
C531        C  0.33705830  0.68079602  0.21242316    -0.02100
C532        C  0.36649558  0.70617641  0.18997058     0.04700
N533        N  0.42170393  0.72660176  0.19136420     0.67300
H534        H  0.36494578  0.73484819  0.14924824     0.16200
H535        H  0.25665446  0.65368050  0.22869471     0.15900
N536        N  0.19528802  0.67968132  0.18990501     0.75000
O537        O  0.45358559  0.71942828  0.16971085    -0.38500
O538        O  0.43168218  0.76658528  0.20870901    -0.38400
O539        O  0.17095774  0.63405348  0.19551136    -0.39100
O540        O  0.16964528  0.72377534  0.19511803    -0.39200
C541        C  0.34731933  0.29431197  0.33529687    -0.11500
C542        C  0.30817094  0.33300592  0.34578693     0.05500
C543        C  0.32689513  0.38883192  0.35095031    -0.06800
C544        C  0.38209996  0.40348901  0.34502943    -0.07500
C545        C  0.41841222  0.36488426  0.33257071    -0.02100
C546        C  0.40098312  0.30958699  0.32837197     0.04700
N547        N  0.43877979  0.26679398  0.32109154     0.67300
H548        H  0.33992911  0.25018120  0.33610274     0.16200
H549        H  0.39703540  0.44488195  0.35080938     0.15900
N550        N  0.29289834  0.42958879  0.36526103     0.75000
O551        O  0.45945316  0.24397168  0.34072837    -0.38500
O552        O  0.43635951  0.24057593  0.29758494    -0.38400
O553        O  0.29712160  0.43999989  0.39117106    -0.39100
O554        O  0.27372427  0.46585666  0.35115636    -0.39200
C555        C  0.17825128  0.17661337  0.42844731    -0.11500
C556        C  0.15989646  0.22981284  0.42407828     0.05500
C557        C  0.14030627  0.26320580  0.44801728    -0.06800
C558        C  0.13713552  0.24168608  0.47425921    -0.07500
C559        C  0.15836937  0.19025632  0.47807861    -0.02100
C560        C  0.18491868  0.16048644  0.45533672     0.04700
N561        N  0.22550928  0.12051119  0.45935969     0.67300
H562        H  0.19931323  0.15297230  0.41152057     0.16200
H563        H  0.11841988  0.26575901  0.49196811     0.15900
N564        N  0.12885820  0.32059656  0.44713823     0.75000
O565        O  0.24140518  0.08748040  0.43928242    -0.38500
O566        O  0.25516045  0.12782839  0.47996499    -0.38400
O567        O  0.08017976  0.33541642  0.45290976    -0.39100
O568        O  0.16777693  0.35631535  0.44971082    -0.39200
C569        C  0.73068476  0.15297619  0.06567912    -0.11500
C570        C  0.76812190  0.19120442  0.07879478     0.05500
C571        C  0.82244344  0.17505439  0.08043036    -0.06800
C572        C  0.83801086  0.12481087  0.06725997    -0.07500
C573        C  0.80246583  0.09216271  0.05090383    -0.02100
C574        C  0.74789418  0.10613829  0.05031397     0.04700
N575        N  0.70881743  0.07240825  0.03533187     0.67300
H576        H  0.68674209  0.15662609  0.06840391     0.16200
H577        H  0.87838082  0.11116675  0.06923385     0.15900
N578        N  0.86094537  0.20672167  0.09680494     0.75000
O579        O  0.67979584  0.03610316  0.04804772    -0.38500
O580        O  0.69329340  0.08878073  0.01272013    -0.38400
O581        O  0.85924093  0.20340598  0.12303289    -0.39100
O582        O  0.90118882  0.23212927  0.08470679    -0.39200
C583        C  0.60525971  0.27956803  0.17212834    -0.11500
C584        C  0.64329352  0.31907423  0.16014500     0.05500
C585        C  0.62559896  0.37360249  0.15810893    -0.06800
C586        C  0.57203160  0.38617373  0.16774860    -0.07500
C587        C  0.53488358  0.34500809  0.17805639    -0.02100
C588        C  0.55227305  0.29176414  0.18079981     0.04700
N589        N  0.51463457  0.24733527  0.18864508     0.67300
H590        H  0.61189131  0.23571762  0.17088469     0.16200
H591        H  0.55933638  0.42806825  0.16650251     0.15900
N592        N  0.65722760  0.41372840  0.14235485     0.75000
O593        O  0.48951437  0.21984953  0.16989303    -0.38500
O594        O  0.51709294  0.22732023  0.21222278    -0.38400
O595        O  0.64727488  0.41882192  0.11714567    -0.39100
O596        O  0.68144263  0.45358743  0.15528664    -0.39200
C597        C  0.72937878  0.67936663  0.29772980    -0.11500
C598        C  0.69603218  0.70790607  0.31869258     0.05500
C599        C  0.64429703  0.72503087  0.31130816    -0.06800
C600        C  0.62602961  0.70902200  0.28514021    -0.07500
C601        C  0.65592415  0.67263338  0.26677211    -0.02100
C602        C  0.70959011  0.66102066  0.27226605     0.04700
N603        N  0.74459711  0.63115815  0.25203951     0.67300
H604        H  0.77247153  0.67417023  0.29975875     0.16200
H605        H  0.58572132  0.72129824  0.28036938     0.15900
N606        N  0.61134592  0.76205306  0.32900712     0.75000
O607        O  0.77350631  0.65779176  0.23411497    -0.38500
O608        O  0.75708730  0.58244092  0.25654946    -0.38400
O609        O  0.61428920  0.81318114  0.32464617    -0.39100
O610        O  0.56862655  0.74247227  0.34179012    -0.39200
C611        C  0.87037949  0.86562395  0.37292324    -0.11500
C612        C  0.82385124  0.84720185  0.38928234     0.05500
C613        C  0.81224179  0.87179107  0.41581223    -0.06800
C614        C  0.83292116  0.92546187  0.42098367    -0.07500
C615        C  0.87706907  0.94700616  0.40385169    -0.02100
C616        C  0.89685000  0.91572258  0.37989116     0.04700
N617        N  0.94076100  0.93575595  0.36143179     0.67300
H618        H  0.88250890  0.84387440  0.35314261     0.16200
H619        H  0.81867076  0.94783022  0.43999048     0.15900
N620        N  0.79173348  0.83905710  0.43865677     0.75000
O621        O  0.98762375  0.91592204  0.36204129    -0.38500
O622        O  0.92928912  0.95961265  0.33995690    -0.38400
O623        O  0.80013914  0.78768528  0.43777966    -0.39100
O624        O  0.76865568  0.86160354  0.46057845    -0.39200
C625        C  0.79071410  0.15921871  0.44290639    -0.11500
C626        C  0.84613370  0.17629539  0.44567044     0.05500
C627        C  0.87368075  0.20708893  0.42440274    -0.06800
C628        C  0.84521250  0.22204515  0.40227547    -0.07500
C629        C  0.78835008  0.21437765  0.40259257    -0.02100
C630        C  0.76239441  0.17576527  0.42066212     0.04700
N631        N  0.71252645  0.14592645  0.41388134     0.67300
H632        H  0.77042859  0.12983678  0.45683572     0.16200
H633        H  0.86798434  0.24108020  0.38496660     0.15900
N634        N  0.93095581  0.22205174  0.42402554     0.75000
O635        O  0.67330513  0.14196146  0.43232851    -0.38500
O636        O  0.71445165  0.11049656  0.39341769    -0.38400
O637        O  0.96313533  0.19906751  0.40553646    -0.39100
O638        O  0.94559733  0.26814483  0.43561010    -0.39200
C639        C  0.67347740  0.36324771  0.27828402    -0.11500
C640        C  0.62279619  0.33615858  0.27450004     0.05500
C641        C  0.60096506  0.30051723  0.29507482    -0.06800
C642        C  0.62126005  0.30602407  0.32181685    -0.07500
C643        C  0.67300712  0.33216004  0.32612121    -0.02100
C644        C  0.70106626  0.35730292  0.30247844     0.04700
N645        N  0.75878017  0.37056196  0.30044798     0.67300
H646        H  0.69361938  0.38630515  0.26148438     0.16200
H647        H  0.60228398  0.28019728  0.33776308     0.15900
N648        N  0.56671682  0.25242637  0.28768367     0.75000
O649        O  0.77497967  0.41922742  0.29470411    -0.38500
O650        O  0.79148400  0.33164503  0.29504471    -0.38400
O651        O  0.56885757  0.23279892  0.26264035    -0.39100
O652        O  0.54795172  0.22096390  0.30645623    -0.39200
C653        C  0.19419913  0.84616190  0.44191592    -0.11500
C654        C  0.18069354  0.83729309  0.41411223     0.05500
C655        C  0.14915362  0.87712322  0.40323024    -0.06800
C656        C  0.15200330  0.93136277  0.41494887    -0.07500
C657        C  0.17762843  0.94393003  0.44000036    -0.02100
C658        C  0.20061072  0.90047384  0.45340188     0.04700
N659        N  0.23498131  0.91123288  0.47654704     0.67300
H660        H  0.20854609  0.81194658  0.45262213     0.16200
H661        H  0.13118885  0.96289704  0.40533074     0.15900
N662        N  0.11426575  0.86285839  0.38060288     0.75000
O663        O  0.23986477  0.87435356  0.49369925    -0.38500
O664        O  0.26993406  0.95133961  0.47597477    -0.38400
O665        O  0.08697543  0.81733025  0.38021129    -0.39100
O666        O  0.10195234  0.89942779  0.36457892    -0.39200
C667        C  0.40567486  0.64773423  0.34154638    -0.11500
C668        C  0.44310167  0.68176783  0.32628911     0.05500
C669        C  0.42805718  0.73538454  0.32109344    -0.06800
C670        C  0.37540467  0.75189512  0.32908275    -0.07500
C671        C  0.33437424  0.71559012  0.34100218    -0.02100
C672        C  0.35093723  0.66264583  0.34764451     0.04700
N673        N  0.31415503  0.62555617  0.36263487     0.67300
H674        H  0.41878368  0.60868440  0.34794782     0.16200
H675        H  0.36930411  0.79555033  0.32789195     0.15900
N676        N  0.46653406  0.77500199  0.30896671     0.75000
O677        O  0.29152658  0.58473711  0.34967055    -0.38500
O678        O  0.30868583  0.62996056  0.38904282    -0.38400
O679        O  0.46377716  0.78496944  0.28355195    -0.39100
O680        O  0.48916810  0.81111912  0.32500843    -0.39200
C681        C  0.59765523  0.62681577  0.14181440    -0.11500
C682        C  0.56462793  0.65704659  0.16184367     0.05500
C683        C  0.58142611  0.71221441  0.16999581    -0.06800
C684        C  0.62938163  0.73460590  0.15793411    -0.07500
C685        C  0.66588206  0.70268222  0.14073766    -0.02100
C686        C  0.64823360  0.64820815  0.13168762     0.04700
N687        N  0.67878770  0.61473013  0.11101420     0.67300
H688        H  0.58578095  0.58479720  0.13473017     0.16200
H689        H  0.63548397  0.77876104  0.16119291     0.15900
N690        N  0.55148738  0.74743871  0.19018627     0.75000
O691        O  0.69670101  0.56983125  0.11825358    -0.38500
O692        O  0.67102382  0.61924885  0.08548704    -0.38400
O693        O  0.56023744  0.74492604  0.21571981    -0.39100
O694        O  0.53504677  0.79250004  0.18224366    -0.39200
C695        C  0.83957068  0.78618851  0.04555017    -0.11500
C696        C  0.81290329  0.81999306  0.06700008     0.05500
C697        C  0.79846110  0.87381207  0.06039301    -0.06800
C698        C  0.81058849  0.89132717  0.03360410    -0.07500
C699        C  0.84187897  0.85961234  0.01354501    -0.02100
C700        C  0.85510967  0.80577767  0.01930287     0.04700
N701        N  0.87930850  0.76856456  0.99808722     0.67300
H702        H  0.84508137  0.74272414  0.04796243     0.16200
H703        H  0.79820903  0.93227807  0.02923060     0.15900
N704        N  0.76834798  0.91058578  0.07966450     0.75000
O705        O  0.92786537  0.75406705  0.00008162    -0.38500
O706        O  0.84800355  0.73819606  0.98323022    -0.38400
O707        O  0.79201131  0.95550547  0.08798663    -0.39100
O708        O  0.71650921  0.90793728  0.08041749    -0.39200
C709        C  0.23930982  0.36294787  0.19718613    -0.11500
C710        C  0.27231985  0.33279949  0.17659261     0.05500
C711        C  0.32260775  0.31321964  0.18482405    -0.06800
C712        C  0.33634115  0.32200337  0.21252583    -0.07500
C713        C  0.30583443  0.35579612  0.23193440    -0.02100
C714        C  0.25543398  0.37444055  0.22447574     0.04700
N715        N  0.21648120  0.39705932  0.24533128     0.67300
H716        H  0.19769707  0.37220353  0.19366440     0.16200
H717        H  0.37091110  0.30092713  0.21906138     0.15900
N718        N  0.35534492  0.27592275  0.16702577     0.75000
O719        O  0.20364988  0.44703598  0.24481521    -0.38500
O720        O  0.18547589  0.36418400  0.25930124    -0.38400
O721        O  0.39687393  0.29532890  0.15323736    -0.39100
O722        O  0.35309645  0.22486520  0.17154704    -0.39200
C723        C  0.10089223  0.17100001  0.11830310    -0.11500
C724        C  0.15617801  0.17642472  0.10712263     0.05500
C725        C  0.18471115  0.12635517  0.10041287    -0.06800
C726        C  0.15941890  0.07526684  0.10686074    -0.07500
C727        C  0.10228335  0.07177972  0.11166893    -0.02100
C728        C  0.07633712  0.11900653  0.12308157     0.04700
N729        N  0.02814131  0.11419356  0.14167044     0.67300
H730        H  0.07970981  0.20622267  0.12803582     0.16200
H731        H  0.18112074  0.03773684  0.10062407     0.15900
N732        N  0.24050666  0.12625015  0.08930829     0.75000
O733        O  0.03372102  0.10619747  0.16709128    -0.38500
O734        O  0.98284233  0.13052020  0.13472742    -0.38400
O735        O  0.27812172  0.12048085  0.10559903    -0.39100
O736        O  0.24993885  0.11465119  0.06343481    -0.39200
C737        C  0.19314117  0.23207850  0.61813591     0.30800
C738        C  0.24624049  0.30774436  0.65174396     0.30800
C739        C  0.16220153  0.28704929  0.62528064    -0.05400
C740        C  0.20590243  0.21285265  0.64713947    -0.06200
C741        C  0.24978020  0.25441764  0.60526569    -0.06100
C742        C  0.18941624  0.32593651  0.64248081    -0.05400
C743        C  0.23224233  0.25034720  0.66408345    -0.06200
C744        C  0.27763549  0.29312402  0.62246030    -0.06100
C745        C  0.15975227  0.37450451  0.64304665    -0.31500
N746        N  0.11447132  0.36626027  0.62770239     0.15000
C747        C  0.11674812  0.31300863  0.61619677    -0.31500
H748        H  0.08861149  0.29488920  0.60136677     0.17000
C749        C  0.24016276  0.22341162  0.68874660    -0.30400
N750        N  0.21957542  0.16985508  0.68673384     0.13800
C751        C  0.19721884  0.16407426  0.66153856    -0.30400
C752        C  0.32340664  0.31276740  0.60575768    -0.30700
N753        N  0.32491034  0.28661972  0.57941666     0.14300
H754        H  0.35251983  0.34537185  0.61206173     0.16900
C755        C  0.27844680  0.25299645  0.57888156    -0.30700
H756        H  0.26565391  0.22982561  0.56029832     0.16900
H757        H  0.17591789  0.12650531  0.65431348     0.16900
H758        H  0.17147296  0.41414863  0.65308372     0.17000
H759        H  0.26057977  0.24126316  0.70667734     0.16900
N760        N  0.06419172  0.51123521  0.62255641    -0.35800
N761        N  0.97397008  0.42550792  0.61924766    -0.56400
N762        N  0.89405622  0.51495705  0.61840483    -0.35800
N763        N  0.98576040  0.59947386  0.61588389    -0.56400
C764        C  0.09283966  0.46377439  0.61803004     0.27800
C765        C  0.09910464  0.55515999  0.61620583     0.27800
C766        C  0.86126915  0.46889824  0.61280111     0.27800
C767        C  0.86800130  0.56021129  0.61085938     0.27800
C768        C  0.01548118  0.39331481  0.62590247     0.36400
C769        C  0.92562336  0.39543735  0.62334812     0.36400
C770        C  0.03146040  0.63097663  0.62233658     0.36400
C771        C  0.94193079  0.63309525  0.61977336     0.36400
C772        C  0.14609438  0.47792720  0.60825267    -0.21100
C773        C  0.14998442  0.53500696  0.60706139    -0.21100
C774        C  0.81409596  0.48521442  0.60154416    -0.21100
C775        C  0.81870800  0.54224592  0.59997488    -0.21100
C776        C  0.99294728  0.34279150  0.63433540    -0.22200
C777        C  0.93668560  0.34406523  0.63258066    -0.22200
C778        C  0.01598899  0.68441907  0.63068941    -0.22200
C779        C  0.95994015  0.68581543  0.62886010    -0.22200
C780        C  0.07346664  0.40819452  0.62369892    -0.17500
C781        C  0.08721016  0.61307145  0.61965057    -0.17500
C782        C  0.88596613  0.61752543  0.61465033    -0.17500
C783        C  0.87160993  0.41255752  0.61817055    -0.17500
H784        H  0.17891863  0.44995337  0.60228893     0.15400
H785        H  0.18632724  0.55879036  0.59996849     0.15400
H786        H  0.78014533  0.45864970  0.59469440     0.15400
H787        H  0.78938865  0.56755446  0.59126464     0.15400
H788        H  0.01445666  0.30850396  0.64138185     0.13700
H789        H  0.90714993  0.31107248  0.63794681     0.13700
H790        H  0.04195444  0.71896411  0.63797691     0.13700
H791        H  0.93518325  0.72148461  0.63430407     0.13700
H792        H  0.02476146  0.51398098  0.63214213     0.26900
H793        H  0.92977937  0.51591766  0.62911092     0.26900
C794        C  0.78215785  0.79415164  0.59201105     0.30800
C795        C  0.71128149  0.73552340  0.62583093     0.30800
C796        C  0.80321087  0.73709973  0.60046444    -0.05400
C797        C  0.76778986  0.82382932  0.62136084    -0.06200
C798        C  0.72528894  0.77880582  0.58060545    -0.06100
C799        C  0.76655286  0.70735552  0.61789253    -0.05400
C800        C  0.73142953  0.79343839  0.63871382    -0.06200
C801        C  0.69005093  0.74896637  0.59758708    -0.06100
C802        C  0.79401126  0.66193202  0.62590081    -0.31500
N803        N  0.84573028  0.66111206  0.61304488     0.15000
C804        C  0.85204282  0.70792335  0.59814777    -0.31500
H805        H  0.88995822  0.72040492  0.58677471     0.17000
C806        C  0.72588502  0.82394604  0.66442949    -0.30400
N807        N  0.75590093  0.87281018  0.66318263     0.13800
C808        C  0.78295961  0.87216407  0.63718431    -0.30400
C809        C  0.64131892  0.73969918  0.58408618    -0.30700
N810        N  0.64533195  0.76452709  0.55916415     0.14300
H811        H  0.60525548  0.71651209  0.59205202     0.16900
C812        C  0.69705163  0.78873859  0.55700194    -0.30700
H813        H  0.71291167  0.81294596  0.53973253     0.16900
H814        H  0.81270641  0.90396220  0.63056127     0.16900
H815        H  0.77793515  0.63226015  0.64070928     0.17000
H816        H  0.70187234  0.81138222  0.68297685     0.16900
N817        N  0.23824015  0.93929450  0.75182419    -0.35800
N818        N  0.22277026  0.02313525  0.71118791    -0.56400
N819        N  0.22321796  0.11135666  0.75806519    -0.35800
N820        N  0.22702225  0.02672895  0.79923690    -0.56400
C821        C  0.22398124  0.90665341  0.72879496     0.27800
C822        C  0.22947995  0.90874282  0.77500276     0.27800
C823        C  0.20976881  0.14049380  0.73616683     0.27800
C824        C  0.20829788  0.14130670  0.78229607     0.27800
C825        C  0.23568453  0.97856712  0.69324849     0.36400
C826        C  0.23302711  0.07005612  0.69677430     0.36400
C827        C  0.24551588  0.98366532  0.81269699     0.36400
C828        C  0.23342043  0.07374366  0.81626904     0.36400
C829        C  0.20492225  0.85537917  0.73783997    -0.21100
C830        C  0.20861265  0.85656938  0.76656390    -0.21100
C831        C  0.18535891  0.18893108  0.74670153    -0.21100
C832        C  0.18452956  0.18945962  0.77556224    -0.21100
C833        C  0.25478759  0.99754419  0.66753998    -0.22200
C834        C  0.25346373  0.05478025  0.66979373    -0.22200
C835        C  0.26470106  0.00410949  0.83811072    -0.22200
C836        C  0.25638299  0.06049071  0.84049934    -0.22200
C837        C  0.22985471  0.92104818  0.69976156    -0.17500
C838        C  0.24122920  0.92579685  0.80346633    -0.17500
C839        C  0.21869511  0.12847745  0.81026725    -0.17500
C840        C  0.22146672  0.12620643  0.70694597    -0.17500
H841        H  0.18892358  0.82063760  0.72520128     0.15400
H842        H  0.19603782  0.82286915  0.77977448     0.15400
H843        H  0.16938230  0.22076904  0.73489619     0.15400
H844        H  0.16821327  0.22186265  0.78996471     0.15400
H845        H  0.26983158  0.97305064  0.64919542     0.13700
H846        H  0.26704982  0.08196439  0.65336628     0.13700
H847        H  0.28322182  0.98106248  0.85345405     0.13700
H848        H  0.26717082  0.08865015  0.85787215     0.13700
H849        H  0.25758207  0.97857442  0.75155853     0.26900
H850        H  0.24632196  0.07592589  0.75632195     0.26900
N851        N  0.75189679  0.02081164  0.69486536    -0.35800
N852        N  0.75426262  0.93622611  0.73716513    -0.56400
N853        N  0.75243663  0.02436540  0.78272072    -0.35800
N854        N  0.73888392  0.10826085  0.74077709    -0.56400
C855        C  0.74270952  0.97264580  0.67913005     0.27800
C856        C  0.73391568  0.06367720  0.68095045     0.27800
C857        C  0.74213883  0.97790955  0.79747517     0.27800
C858        C  0.73625659  0.06922873  0.79949128     0.27800
C859        C  0.76719436  0.90466110  0.71324991     0.36400
C860        C  0.76626072  0.90639230  0.75911208     0.36400
C861        C  0.74807933  0.13970138  0.71793137     0.36400
C862        C  0.74991882  0.14156023  0.76400660     0.36400
C863        C  0.71824539  0.98509182  0.65514914    -0.21100
C864        C  0.71232832  0.04191284  0.65636517    -0.21100
C865        C  0.71863773  0.99367410  0.82376160    -0.21100
C866        C  0.71486767  0.05074831  0.82499217    -0.21100
C867        C  0.78810514  0.85517550  0.72010276    -0.22200
C868        C  0.78775524  0.85633761  0.74891627    -0.22200
C869        C  0.76598304  0.19266137  0.72683019    -0.22200
C870        C  0.76719072  0.19378833  0.75562188    -0.22200
C871        C  0.75670912  0.91777713  0.68540111    -0.17500
C872        C  0.73866366  0.12193414  0.68928487    -0.17500
C873        C  0.74215615  0.12647956  0.79276530    -0.17500
C874        C  0.75475158  0.92188189  0.78822126    -0.17500
H875        H  0.70493526  0.95608735  0.63864914     0.15400
H876        H  0.69325976  0.06422375  0.64093352     0.15400
H877        H  0.70456862  0.96686585  0.84030813     0.15400
H878        H  0.69712674  0.07553223  0.84258104     0.15400
H879        H  0.80211517  0.82151720  0.70581490     0.13700
H880        H  0.80184999  0.82378134  0.76091315     0.13700
H881        H  0.77832324  0.22689559  0.71393326     0.13700
H882        H  0.78051261  0.22905930  0.76876296     0.13700
H883        H  0.77357902  0.02469729  0.71290471     0.26900
H884        H  0.77370668  0.02600698  0.76317882     0.26900
C885        C  0.21662194  0.80713356  0.89218187     0.30800
C886        C  0.28329879  0.74818151  0.85485115     0.30800
C887        C  0.19230931  0.74972385  0.88173101    -0.05400
C888        C  0.23407111  0.83594191  0.86417483    -0.06200
C889        C  0.27326989  0.79304450  0.90310564    -0.06100
C890        C  0.22555517  0.71909502  0.86219756    -0.05400
C891        C  0.26588290  0.80480261  0.84485922    -0.06200
C892        C  0.30596496  0.76258912  0.88410874    -0.06100
C893        C  0.19225208  0.67302681  0.85351753    -0.31500
N894        N  0.14155578  0.67386572  0.86797355     0.15000
C895        C  0.14194308  0.72072742  0.88530898    -0.31500
H896        H  0.10768782  0.73323480  0.89949167     0.17000
C897        C  0.27021149  0.83321588  0.81997944    -0.30400
N898        N  0.24561938  0.88305092  0.82407711     0.13800
C899        C  0.22445234  0.88500693  0.85120804    -0.30400
C900        C  0.35353558  0.75122890  0.89725152    -0.30700
N901        N  0.35172262  0.77464088  0.92386578     0.14300
H902        H  0.38725259  0.72719971  0.88803335     0.16900
C903        C  0.30341412  0.80140356  0.92731538    -0.30700
H904        H  0.29246608  0.82629056  0.94610928     0.16900
H905        H  0.20326850  0.92026229  0.86068247     0.16900
H906        H  0.20334045  0.64204168  0.83715565     0.17000
H907        H  0.29010019  0.81841412  0.80021493     0.16900
N908        N  0.07411494  0.52911486  0.86775564    -0.35800
N909        N  0.98210065  0.44366673  0.87355009    -0.56400
N910        N  0.90293799  0.52977284  0.86675549    -0.35800
N911        N  0.99383359  0.61646302  0.86671054    -0.56400
C912        C  0.10056073  0.48474881  0.87590909     0.27800
C913        C  0.10695481  0.57553518  0.87251207     0.27800
C914        C  0.86842596  0.48655472  0.87460995     0.27800
C915        C  0.87447453  0.57730130  0.87090096     0.27800
C916        C  0.02628223  0.41050836  0.86959350     0.36400
C917        C  0.93599174  0.41091081  0.86919716     0.36400
C918        C  0.04150426  0.64736252  0.86187768     0.36400
C919        C  0.95122874  0.64761159  0.86054644     0.36400
C920        C  0.15025909  0.50363599  0.88616277    -0.21100
C921        C  0.15444010  0.56032048  0.88382093    -0.21100
C922        C  0.81806031  0.50725540  0.88421524    -0.21100
C923        C  0.82179471  0.56397324  0.88184286    -0.21100
C924        C  0.00801182  0.35671864  0.86251860    -0.22200
C925        C  0.95147743  0.35696710  0.86217074    -0.22200
C926        C  0.02893052  0.69817889  0.85255061    -0.22200
C927        C  0.97240014  0.69827540  0.85154789    -0.22200
C928        C  0.08269974  0.42731603  0.87332740    -0.17500
C929        C  0.09612204  0.63138298  0.86671665    -0.17500
C930        C  0.89344013  0.63228197  0.86416935    -0.17500
C931        C  0.88008796  0.42866274  0.87227960    -0.17500
H932        H  0.18034523  0.47936255  0.89496565     0.15400
H933        H  0.18832355  0.58735614  0.89030739     0.15400
H934        H  0.78223598  0.48407756  0.89245480     0.15400
H935        H  0.78930702  0.59226609  0.88792023     0.15400
H936        H  0.03283706  0.32091291  0.85760091     0.13700
H937        H  0.92516647  0.32131456  0.85676628     0.13700
H938        H  0.05761559  0.73152712  0.84666006     0.13700
H939        H  0.94971810  0.73199983  0.84475103     0.13700
H940        H  0.03797862  0.52702556  0.85734397     0.26900
H941        H  0.94182561  0.52651366  0.85658930     0.26900
C942        C  0.70033861  0.30976387  0.85197697     0.30800
C943        C  0.75490395  0.24941207  0.88617646     0.30800
C944        C  0.75534625  0.33792734  0.86175679    -0.05400
C945        C  0.66793652  0.29765654  0.88104520    -0.10400
C946        C  0.71737763  0.25121689  0.84011963    -0.06100
C947        C  0.78322009  0.30681931  0.87916776    -0.05400
C948        C  0.69691600  0.26720618  0.89836639    -0.06200
C949        C  0.74535747  0.22070194  0.85714610    -0.06100
C950        C  0.83049600  0.33836200  0.88613357    -0.31500
N951        N  0.83372567  0.38692092  0.87284105     0.15000
C952        C  0.78631034  0.38792610  0.85917946    -0.31500
H953        H  0.77476763  0.42308887  0.84833390     0.17000
C954        C  0.66644089  0.26530212  0.92416573    -0.30400
N955        N  0.61774271  0.29093618  0.92353374     0.13800
C956        C  0.61894182  0.31163504  0.89715782    -0.30400
C957        C  0.75870517  0.17134228  0.84167304    -0.30700
N958        N  0.73815537  0.17056689  0.81565230     0.14300
H959        H  0.78241173  0.13876638  0.84888364     0.16900
C960        C  0.71245423  0.21953283  0.81495702    -0.30700
H961        H  0.69146554  0.23165395  0.79724890     0.16900
H962        H  0.58709843  0.33635046  0.89016607     0.16900
H963        H  0.86054252  0.32719442  0.90017505     0.17000
H964        H  0.67959045  0.24722544  0.94254114     0.16900
N965        N  0.49540513  0.76687174  0.94792754    -0.35800
N966        N  0.58089177  0.76801439  0.98824090    -0.56400
N967        N  0.49925044  0.76013222  0.53657898    -0.35800
N968        N  0.40870946  0.77039213  0.99579213    -0.56400
C969        C  0.54110445  0.77802423  0.93081444     0.27800
C970        C  0.45074160  0.78170600  0.93493259     0.27800
C971        C  0.54594927  0.77309054  0.55007833     0.27800
C972        C  0.45471709  0.76987342  0.55504056     0.27800
C973        C  0.61215433  0.75855969  0.96369995     0.36400
C974        C  0.61723743  0.75817460  0.50953590     0.36400
C975        C  0.37825710  0.75979829  0.97292626     0.36400
C976        C  0.38358604  0.75430716  0.52045960     0.36400
C977        C  0.52525863  0.80038257  0.90682378    -0.21100
C978        C  0.46868053  0.80308938  0.90946399    -0.21100
C979        C  0.53045313  0.79192982  0.57738204    -0.21100
C980        C  0.47352816  0.78943031  0.58052235    -0.21100
C981        C  0.66295494  0.74071254  0.96966002    -0.22200
C982        C  0.66810048  0.74094736  0.49823589    -0.22200
C983        C  0.32854263  0.73423487  0.98145164    -0.22200
C984        C  0.33494773  0.72997211  0.51187503    -0.22200
C985        C  0.59668696  0.76763346  0.93591971    -0.17500
C986        C  0.39414923  0.77268548  0.94438051    -0.17500
C987        C  0.39778269  0.76085227  0.54926388    -0.17500
C988        C  0.60203670  0.76541306  0.53915127    -0.17500
H989        H  0.55176762  0.81411295  0.88933975     0.15400
H990        H  0.44375196  0.81917440  0.89420119     0.15400
H991        H  0.55724784  0.80670054  0.59354013     0.15400
H992        H  0.44896736  0.80174180  0.59934812     0.15400
H993        H  0.69651213  0.72915526  0.95481275     0.13700
H994        H  0.70178423  0.72744933  0.50936121     0.13700
H995        H  0.29616278  0.71916497  0.96827514     0.13700
H996        H  0.30413635  0.70831986  0.52487269     0.13700
H997        H  0.49419169  0.74554941  0.96621412     0.26900
H998        H  0.49811516  0.74118846  0.51652048     0.26900
N999        N  0.55550435  0.28640105  0.99924525    -0.35800
N1000       N  0.47197787  0.29526864  0.95884825    -0.56400
N1001       N  0.38323978  0.28403597  0.00628828    -0.35800
N1002       N  0.47075552  0.29356957  0.54501697    -0.56400
C1003       C  0.58761464  0.30042341  0.97580719     0.27800
C1004       C  0.58876673  0.29753817  0.52000734     0.27800
C1005       C  0.35382555  0.29776713  0.98460875     0.27800
C1006       C  0.35445914  0.30018647  0.52839085     0.27800
C1007       C  0.51664558  0.28469566  0.94066188     0.36400
C1008       C  0.42595528  0.28286264  0.94462727     0.36400
C1009       C  0.51522759  0.27962589  0.55860675     0.36400
C1010       C  0.42483396  0.28242332  0.56214787     0.36400
C1011       C  0.63795757  0.32119818  0.98441324    -0.21100
C1012       C  0.64063405  0.31730032  0.51068959    -0.21100
C1013       C  0.30315187  0.31591165  0.99576827    -0.21100
C1014       C  0.30428891  0.31896380  0.52192788    -0.21100
C1015       C  0.49861088  0.26486534  0.91504687    -0.22200
C1016       C  0.44189636  0.26346446  0.91755975    -0.22200
C1017       C  0.49686324  0.25903672  0.58419559    -0.22200
C1018       C  0.44037899  0.26114963  0.58644091    -0.22200
C1019       C  0.57346317  0.29302163  0.94681698    -0.17500
C1020       C  0.57230290  0.28677248  0.54897851    -0.17500
C1021       C  0.36880002  0.29080058  0.55640460    -0.17500
C1022       C  0.36975874  0.29108898  0.95497835    -0.17500
H1023       H  0.67229071  0.33690406  0.97128508     0.15400
H1024       H  0.67449011  0.32975534  0.52341931     0.15400
H1025       H  0.27039371  0.33093818  0.98449149     0.15400
H1026       H  0.27042939  0.33080325  0.53653681     0.15400
H1027       H  0.52345748  0.25115512  0.89657511     0.13700
H1028       H  0.41549985  0.24848690  0.90127414     0.13700
H1029       H  0.52116654  0.24244200  0.59955402     0.13700
H1030       H  0.41368228  0.24647831  0.60361597     0.13700
H1031       H  0.51727314  0.26556978  0.99938023     0.26900
H1032       H  0.42095685  0.26517914  0.00407542     0.26900
C1033       C  0.77924218  0.80937525  0.87581799     0.30800
C1034       C  0.72058061  0.74055870  0.84196291     0.30800
C1035       C  0.80513063  0.75308552  0.86772013    -0.05400
C1036       C  0.72018402  0.79267092  0.88850984    -0.06200
C1037       C  0.76668753  0.83315287  0.84779876    -0.06100
C1038       C  0.77564512  0.71723249  0.85056133    -0.05400
C1039       C  0.69044387  0.75534389  0.87137240    -0.06200
C1040       C  0.73781754  0.79807296  0.83054943    -0.06100
C1041       C  0.80487301  0.66805885  0.84776340    -0.31500
N1042       N  0.85202316  0.67433192  0.86185802     0.15000
C1043       C  0.85161899  0.72642344  0.87448136    -0.31500
H1044       H  0.88224689  0.74350531  0.88824041     0.17000
C1045       C  0.64201420  0.74043057  0.88730085    -0.30400
N1046       N  0.63960844  0.77017273  0.91261743     0.13800
C1047       C  0.68596659  0.80351224  0.91272066    -0.30400
C1048       C  0.73047217  0.82663380  0.80653540    -0.30700
N1049       N  0.75405420  0.87887378  0.80890687     0.14300
H1050       H  0.70854089  0.81065025  0.78870960     0.16900
C1051       C  0.77628299  0.88302613  0.83437175    -0.30700
H1052       H  0.79788657  0.91982046  0.84264951     0.16900
H1053       H  0.69209873  0.83497201  0.92906613     0.16900
H1054       H  0.79215797  0.62979857  0.83667964     0.17000
H1055       H  0.61154117  0.70903840  0.88120289     0.16900
C1056       C  0.74577849  0.23493233  0.59883294     0.30800
C1057       C  0.68760546  0.29679080  0.63807185     0.30800
C1058       C  0.77437926  0.29257228  0.60735896    -0.05400
C1059       C  0.68988489  0.25370163  0.58980283    -0.06200
C1060       C  0.73362208  0.20821908  0.62743827    -0.06100
C1061       C  0.74450842  0.32442427  0.62820072    -0.05400
C1062       C  0.65987682  0.28374955  0.60984354    -0.06200
C1063       C  0.70640177  0.24034510  0.64755487    -0.06100
C1064       C  0.77797378  0.37140036  0.63465576    -0.31500
N1065       N  0.82554014  0.37086245  0.61772490     0.15000
C1066       C  0.82266346  0.32363424  0.60058758    -0.31500
H1067       H  0.85315250  0.31350039  0.58392940     0.17000
C1068       C  0.61379885  0.30093808  0.59695329    -0.30400
N1069       N  0.61497344  0.28189725  0.56935399     0.13800
C1070       C  0.66286951  0.25457653  0.56481814    -0.30400
C1071       C  0.70748814  0.21352476  0.67276553    -0.30700
N1072       N  0.73236046  0.16384599  0.66832145     0.14300
H1073       H  0.69020271  0.22920631  0.69295237     0.16900
C1074       C  0.74914025  0.16099853  0.64039732    -0.30700
H1075       H  0.77291866  0.12782649  0.63021074     0.16900
H1076       H  0.67726659  0.23615011  0.54464646     0.16900
H1077       H  0.76943806  0.40275121  0.65120580     0.17000
H1078       H  0.58210183  0.32665205  0.60701191     0.16900
C1079       C  0.26064957  0.31457384  0.86666415     0.30800
C1080       C  0.19010681  0.25944432  0.90204005     0.30800
C1081       C  0.20540170  0.34342489  0.87404326    -0.05400
C1082       C  0.23976865  0.25600792  0.85521638    -0.06200
C1083       C  0.28218347  0.30456966  0.89548431    -0.06100
C1084       C  0.16879675  0.31490540  0.89224925    -0.05400
C1085       C  0.20452888  0.22670937  0.87329813    -0.06200
C1086       C  0.24709541  0.27620964  0.91305249    -0.06100
C1087       C  0.11847491  0.34049153  0.89222388    -0.31500
N1088       N  0.12365953  0.38496422  0.87577881     0.15000
C1089       C  0.17595009  0.38489414  0.86352958    -0.31500
H1090       H  0.19074149  0.41199609  0.84729441     0.17000
C1091       C  0.19195363  0.17567049  0.85870465    -0.30400
N1092       N  0.21840936  0.17386916  0.83242846     0.13800
C1093       C  0.24607642  0.22373221  0.83014308    -0.30400
C1094       C  0.27531988  0.26789299  0.93689820    -0.30700
N1095       N  0.32694457  0.29189995  0.93456478     0.14300
H1096       H  0.25961545  0.24489655  0.95456960     0.16900
C1097       C  0.33103258  0.31493669  0.90907179    -0.30700
H1098       H  0.36725003  0.33729432  0.90068404     0.16900
H1099       H  0.26994142  0.23564155  0.81141408     0.16900
H1100       H  0.08032383  0.32683654  0.90291470     0.17000
H1101       H  0.16486947  0.14262823  0.86654020     0.16900
C1102       C  0.26473077  0.73440897  0.64159745     0.30800
C1103       C  0.20997820  0.79137914  0.60650849     0.30800
C1104       C  0.21108223  0.70467740  0.63122133    -0.05400
C1105       C  0.24715927  0.79307451  0.65311059    -0.06200
C1106       C  0.29863934  0.74714078  0.61294259    -0.06100
C1107       C  0.18290733  0.73513521  0.61413026    -0.05400
C1108       C  0.21950773  0.82308440  0.63569721    -0.06200
C1109       C  0.26959401  0.77701419  0.59529691    -0.06100
C1110       C  0.13505157  0.70490337  0.60779371    -0.31500
N1111       N  0.13304050  0.65521691  0.62000205     0.15000
C1112       C  0.18071031  0.65414617  0.63353001    -0.31500
H1113       H  0.19236468  0.61929544  0.64465914     0.17000
C1114       C  0.21042484  0.87486864  0.65074437    -0.30400
N1115       N  0.23122643  0.87613013  0.67684491     0.13800
C1116       C  0.25444777  0.82595814  0.67780791    -0.30400
C1117       C  0.30387085  0.78646460  0.57130915    -0.30700
N1118       N  0.35304716  0.76170963  0.57233589     0.14300
H1119       H  0.29355493  0.81034889  0.55414551     0.16900
C1120       C  0.35016262  0.73786767  0.59800365    -0.30700
H1121       H  0.38264653  0.71437909  0.60527221     0.16900
H1122       H  0.27613495  0.81397570  0.69530693     0.16900
H1123       H  0.10392877  0.71839922  0.59492847     0.17000
H1124       H  0.19008461  0.90931155  0.64308792     0.16900
O1125       O  0.03514486  0.03727094  0.58689055    -0.74500
O1126       O  0.11416219  0.05560049  0.56061304    -0.53400
C1127       C  0.08613291  0.05212384  0.58400348     0.79200
O1128       O  0.91637602  0.88484367  0.48174739    -0.59100
O1129       O  0.84372138  0.93554909  0.48497589    -0.52100
C1130       C  0.86707803  0.89245647  0.49126333     0.71200
O1131       O  0.08082362  0.94161600  0.52344515    -0.73700
O1132       O  0.15777600  0.97230559  0.53677229    -0.54200
C1133       C  0.12130112  0.93382074  0.53736702     0.77200
O1134       O  0.87981400  0.03746841  0.53352718    -0.58800
O1135       O  0.81068285  0.03581545  0.50939770    -0.51900
C1136       C  0.83097820  0.05122835  0.53216770     0.73800
Zr1137     Zr  0.96414557  0.05064879  0.55572406     2.54700
O1138       O  0.91141410  0.02691489  0.59866325    -0.79400
O1139       O  0.96793612  0.14562511  0.57632251    -0.92800
Zr1140     Zr  0.99352215  0.90976690  0.50980130     2.64700
O1141       O  0.96830216  0.85567219  0.55041709    -0.97800
O1142       O  0.02953126  0.81959303  0.49461139    -0.79800
O1143       O  0.02851562  0.98461370  0.53895043    -0.83200
O1144       O  0.92802305  0.97515952  0.52695168    -2.17900
O1145       O  0.92544426  0.16562389  0.96967274    -0.66600
O1146       O  0.85625040  0.09957984  0.97334647    -0.51100
C1147       C  0.87741257  0.14521447  0.96465309     0.72200
O1148       O  0.12900730  0.02585255  0.95143154    -0.59500
O1149       O  0.17364498  0.99721232  0.98539346    -0.51400
C1150       C  0.16351722  0.99334238  0.95970469     0.74000
O1151       O  0.96125529  0.97955637  0.91489566    -0.70900
O1152       O  0.88703148  0.01977877  0.93663583    -0.49500
C1153       C  0.90960296  0.98734250  0.91785546     0.75400
O1154       O  0.08875079  0.16792939  0.01334330    -0.66200
O1155       O  0.15708906  0.11039751  0.00799631    -0.53400
C1156       C  0.13605815  0.15555871  0.00268108     0.73800
Zr1157     Zr  0.00520562  0.13621182  0.99149847     2.77500
O1158       O  0.04902278  0.17249783  0.94904484    -0.96900
O1159       O  0.98742095  0.23130460  0.00849773    -0.77800
Zr1160     Zr  0.03425890  0.99512485  0.94617353     2.70100
O1161       O  0.06071855  0.02686055  0.89961470    -0.79000
O1162       O  0.04491851  0.89790170  0.93080056    -0.98100
Zr1163     Zr  0.09881646  0.02978705  0.01598956     2.21500
Zr1164     Zr  0.89623482  0.01731632  0.98584006     2.11100
O1165       O  0.97096460  0.06360434  0.96095239    -2.46800
O1166       O  0.07025103  0.06989618  0.97504080    -0.78800
O1167       O  0.93030841  0.09217994  0.01688957    -0.71000
O1168       O  0.06335760  0.95192116  0.98588986    -2.32000
O1169       O  0.03210027  0.09578220  0.03247350    -2.28200
O1170       O  0.96057104  0.94857016  0.97118582    -0.72800
H1171       H  0.90225784  0.95213797  0.53796754     0.79200
H1172       H  0.08965591  0.92442409  0.97920520     0.80300
H1173       H  0.96133946  0.08065462  0.94434617     0.82600
H1174       H  0.04688009  0.12123967  0.04654662     0.80200
H1175       H  0.05386079  0.81113547  0.50937608     0.43200
H1176       H  0.02963678  0.87603710  0.94654550     0.42200
H1177       H  0.07785084  0.06434400  0.90311447     0.41800
H1178       H  0.03540749  0.14820075  0.93345656     0.39800
H1179       H  0.00440334  0.23610781  0.02671239     0.42900
H1180       H  0.97106332  0.16898033  0.55994047     0.37700
H1181       H  0.91286838  0.98597726  0.59868607     0.43800
H1182       H  0.93210158  0.86879522  0.55797345     0.40200
H1183       H  0.03186984  0.20846063  0.94754311     0.45100
H1184       H  0.00392916  0.15114186  0.58456916     0.43900
H1185       H  0.96136561  0.81703775  0.54313128     0.44000
H1186       H  0.01835374  0.89039032  0.91619509     0.44400
O1187       O  0.48759737  0.44255682  0.82743296    -0.74500
O1188       O  0.47685156  0.36965881  0.79658613    -0.53400
C1189       C  0.46575201  0.39512609  0.82029798     0.79200
O1190       O  0.34008512  0.61527231  0.74042745    -0.59100
O1191       O  0.41658254  0.67199014  0.73457936    -0.52100
C1192       C  0.36506060  0.66097655  0.73346263     0.71200
O1193       O  0.31846434  0.43390172  0.76777568    -0.73700
O1194       O  0.37260640  0.36221556  0.76338830    -0.54200
C1195       C  0.33006118  0.38596333  0.75656947     0.77200
O1196       O  0.50861229  0.62290160  0.81188652    -0.58800
O1197       O  0.49168772  0.68039164  0.77925918    -0.51900
C1198       C  0.48539877  0.66568853  0.80441295     0.73800
Zr1199     Zr  0.47211557  0.52794692  0.80539524     2.54700
O1200       O  0.37912484  0.53027197  0.82730231    -0.79400
O1201       O  0.49868482  0.55065342  0.85299804    -0.92800
Zr1202     Zr  0.35872348  0.52062242  0.75007192     2.64700
O1203       O  0.27879628  0.55022399  0.77979111    -0.97800
O1204       O  0.29709849  0.50094671  0.71257183    -0.79800
O1205       O  0.40878575  0.47045471  0.78059724    -0.83200
O1206       O  0.42243592  0.57775607  0.77479744    -2.17900
O1207       O  0.63165401  0.58858245  0.75152615    -0.66600
O1208       O  0.57953311  0.65672948  0.73817696    -0.51100
C1209       C  0.62189056  0.63955741  0.74878270     0.72200
O1210       O  0.45638428  0.39892133  0.67583951    -0.59500
O1211       O  0.46310961  0.34401948  0.71092655    -0.51400
C1212       C  0.48121814  0.36212885  0.68748074     0.74000
O1213       O  0.50799487  0.57774450  0.66529148    -0.70900
O1214       O  0.49927589  0.65226009  0.69612289    -0.49500
C1215       C  0.51642003  0.62922895  0.67267689     0.75400
O1216       O  0.60800468  0.39956600  0.74059953    -0.66200
O1217       O  0.53632703  0.34720564  0.75774787    -0.53400
C1218       C  0.58744746  0.36131299  0.75617096     0.73800
Zr1219     Zr  0.58878561  0.49842194  0.74311138     2.77500
O1220       O  0.66232465  0.49868395  0.70628149    -0.96900
O1221       O  0.65970973  0.48920920  0.77569465    -0.77800
Zr1222     Zr  0.47035078  0.49649209  0.68776271     2.70100
O1223       O  0.50017259  0.47559842  0.63870617    -0.79000
O1224       O  0.38368935  0.51587317  0.66869505    -0.98100
Zr1225     Zr  0.46195550  0.40552851  0.75212386     2.21500
Zr1226     Zr  0.48973064  0.61288257  0.74082550     2.11100
O1227       O  0.54103503  0.54721139  0.71186326    -2.46800
O1228       O  0.52342399  0.44686658  0.71768812    -0.78800
O1229       O  0.53881457  0.56434901  0.77220266    -0.71000
O1230       O  0.40927738  0.45477311  0.72151069    -2.32000
O1231       O  0.52621269  0.46271041  0.77750784    -2.28200
O1232       O  0.42121420  0.56167797  0.71627595    -0.72800
H1233       H  0.40223064  0.60728667  0.78452830     0.79200
H1234       H  0.38417995  0.43090865  0.71135101     0.80300
H1235       H  0.56944130  0.56421694  0.69982766     0.82600
H1236       H  0.54909743  0.44289458  0.78882213     0.80200
H1237       H  0.27997014  0.53668438  0.71022490     0.43200
H1238       H  0.39367594  0.54253197  0.65408702     0.42200
H1239       H  0.47135180  0.48995188  0.62780587     0.41800
H1240       H  0.67032421  0.53833635  0.70281854     0.39800
H1241       H  0.64684366  0.51097205  0.79289154     0.42900
H1242       H  0.53475532  0.53372746  0.85385166     0.37700
H1243       H  0.35439065  0.53367810  0.81208724     0.43800
H1244       H  0.26447309  0.51694728  0.78944847     0.40200
H1245       H  0.69489283  0.48709694  0.71538254     0.45100
H1246       H  0.47294502  0.52838170  0.86513782     0.43900
H1247       H  0.25064239  0.55688776  0.76656523     0.44000
H1248       H  0.37294952  0.48097795  0.65817930     0.44400
C1249       C  0.15159183  0.84164391  0.54120312    -0.11500
C1250       C  0.12439078  0.88664836  0.55374976     0.05500
C1251       C  0.11149473  0.89000106  0.58275922    -0.06800
C1252       C  0.13624407  0.85454977  0.59907439    -0.07500
C1253       C  0.17546031  0.81846080  0.58703523    -0.02100
C1254       C  0.17568671  0.80529813  0.55766967     0.04700
N1255       N  0.19718415  0.75551297  0.54416586     0.67300
H1256       H  0.15496983  0.83567023  0.51858346     0.16200
H1257       H  0.12482039  0.85574255  0.62128222     0.15900
N1258       N  0.07313992  0.92776347  0.59608879     0.75000
O1259       O  0.22082818  0.75816130  0.52000874    -0.38500
O1260       O  0.17606115  0.70929062  0.55098752    -0.38400
O1261       O  0.02293484  0.91972016  0.59176397    -0.39100
O1262       O  0.08576213  0.95490034  0.61824041    -0.39200
C1263       C  0.34331999  0.73006431  0.67097564    -0.11500
C1264       C  0.28992289  0.70961109  0.66571324     0.05500
C1265       C  0.25595086  0.69036054  0.68917398    -0.06800
C1266       C  0.27938596  0.68138504  0.71396968    -0.07500
C1267       C  0.33377581  0.69759390  0.71779128    -0.02100
C1268       C  0.36190888  0.73107950  0.69802415     0.04700
N1269       N  0.40189917  0.77302336  0.70667480     0.67300
H1270       H  0.36637326  0.75403689  0.65546130     0.16200
H1271       H  0.25494138  0.66083120  0.73037425     0.15900
N1272       N  0.19716798  0.68533309  0.68998875     0.75000
O1273       O  0.42306249  0.80612883  0.68921391    -0.38500
O1274       O  0.40384265  0.78707731  0.73237717    -0.38400
O1275       O  0.17363732  0.63974567  0.69634775    -0.39100
O1276       O  0.16996908  0.72879324  0.69340957    -0.39200
C1277       C  0.34796984  0.30230613  0.83968415    -0.11500
C1278       C  0.30815226  0.34041596  0.84988471     0.05500
C1279       C  0.32621645  0.39640580  0.85535809    -0.06800
C1280       C  0.38121332  0.41209687  0.84928805    -0.07500
C1281       C  0.41807679  0.37411106  0.83662168    -0.02100
C1282       C  0.40152318  0.31839192  0.83299049     0.04700
N1283       N  0.43972964  0.27628857  0.82523261     0.67300
H1284       H  0.34057925  0.25803567  0.84008596     0.16200
H1285       H  0.39498013  0.45437251  0.85414591     0.15900
N1286       N  0.29099615  0.43722468  0.86862292     0.75000
O1287       O  0.46120327  0.25351158  0.84463295    -0.38500
O1288       O  0.43624276  0.24988088  0.80183431    -0.38400
O1289       O  0.29271633  0.44805322  0.89465059    -0.39100
O1290       O  0.27357083  0.47332415  0.85378814    -0.39200
C1291       C  0.17827814  0.17636944  0.92873765    -0.11500
C1292       C  0.15952195  0.23000210  0.92550290     0.05500
C1293       C  0.13965964  0.26116433  0.95010497    -0.06800
C1294       C  0.13691201  0.23756282  0.97583960    -0.07500
C1295       C  0.15760333  0.18544516  0.97859585    -0.02100
C1296       C  0.18377806  0.15709937  0.95522004     0.04700
N1297       N  0.22248771  0.11472770  0.95827384     0.67300
H1298       H  0.19973659  0.15438370  0.91133742     0.16200
H1299       H  0.11835462  0.26044177  0.99400057     0.15900
N1300       N  0.12671393  0.31831877  0.95038822     0.75000
O1301       O  0.23641335  0.08223824  0.93759963    -0.38500
O1302       O  0.25257034  0.11885370  0.97878709    -0.38400
O1303       O  0.07723725  0.33112207  0.95544199    -0.39100
O1304       O  0.16415109  0.35468829  0.95516451    -0.39200
C1305       C  0.73394104  0.15287167  0.56571200    -0.11500
C1306       C  0.77086699  0.19110714  0.57912843     0.05500
C1307       C  0.82492405  0.17472002  0.58159050    -0.06800
C1308       C  0.84087312  0.12415258  0.56888121    -0.07500
C1309       C  0.80617209  0.09198502  0.55182508    -0.02100
C1310       C  0.75175544  0.10611112  0.55053456     0.04700
N1311       N  0.71389492  0.07367855  0.53415042     0.67300
H1312       H  0.69001168  0.15687798  0.56768687     0.16200
H1313       H  0.88108879  0.11035752  0.57148620     0.15900
N1314       N  0.86305501  0.20709720  0.59787733     0.75000
O1315       O  0.68077535  0.03946596  0.54597153    -0.38500
O1316       O  0.70425814  0.08921721  0.51033139    -0.38400
O1317       O  0.85978994  0.20629361  0.62424304    -0.39100
O1318       O  0.90394617  0.23142664  0.58575041    -0.39200
C1319       C  0.60581680  0.28215652  0.67006388    -0.11500
C1320       C  0.64427424  0.32162374  0.65837956     0.05500
C1321       C  0.62703958  0.37635868  0.65659345    -0.06800
C1322       C  0.57389365  0.38952817  0.66684563    -0.07500
C1323       C  0.53662807  0.34859737  0.67734842    -0.02100
C1324       C  0.55355233  0.29505976  0.67967191     0.04700
N1325       N  0.51616740  0.25128537  0.68860621     0.67300
H1326       H  0.61180323  0.23813930  0.66826799     0.16200
H1327       H  0.56166244  0.43170832  0.66602149     0.15900
N1328       N  0.65862320  0.41616647  0.64061939     0.75000
O1329       O  0.48932461  0.22340862  0.67065173    -0.38500
O1330       O  0.52048873  0.23202809  0.71221665    -0.38400
O1331       O  0.64750951  0.42197307  0.61564245    -0.39100
O1332       O  0.68458568  0.45511952  0.65330032    -0.39200
C1333       C  0.72543178  0.68190942  0.79771788    -0.11500
C1334       C  0.69161575  0.70955827  0.81875290     0.05500
C1335       C  0.64013630  0.72727632  0.81119694    -0.06800
C1336       C  0.62331218  0.71387319  0.78438224    -0.07500
C1337       C  0.65401074  0.67906951  0.76552937    -0.02100
C1338       C  0.70694365  0.66591031  0.77168699     0.04700
N1339       N  0.74218939  0.63550282  0.75180375     0.67300
H1340       H  0.76815129  0.67557193  0.80016871     0.16200
H1341       H  0.58364668  0.72712210  0.77923702     0.15900
N1342       N  0.60627594  0.76267328  0.82939078     0.75000
O1343       O  0.77563640  0.66196004  0.73577200    -0.38500
O1344       O  0.75035013  0.58525797  0.75548410    -0.38400
O1345       O  0.60955105  0.81435912  0.82649546    -0.39100
O1346       O  0.56308757  0.74195334  0.84126047    -0.39200
C1347       C  0.86620711  0.86464633  0.87384837    -0.11500
C1348       C  0.81913649  0.84741353  0.89018197     0.05500
C1349       C  0.80658299  0.87399441  0.91617313    -0.06800
C1350       C  0.82765286  0.92777072  0.92062896    -0.07500
C1351       C  0.87351913  0.94710280  0.90392777    -0.02100
C1352       C  0.89326904  0.91456277  0.88043903     0.04700
N1353       N  0.93854061  0.93281917  0.86232197     0.67300
H1354       H  0.87855807  0.84192505  0.85437277     0.16200
H1355       H  0.81334063  0.95127846  0.93934296     0.15900
N1356       N  0.78552032  0.84299293  0.93953901     0.75000
O1357       O  0.98406140  0.91020053  0.86292568    -0.38500
O1358       O  0.92897740  0.95833939  0.84105065    -0.38400
O1359       O  0.79429659  0.79183208  0.93980588    -0.39100
O1360       O  0.76142112  0.86695453  0.96079458    -0.39200
C1361       C  0.78935495  0.15985795  0.94440574    -0.11500
C1362       C  0.84614364  0.17218475  0.94479956     0.05500
C1363       C  0.87351954  0.19828992  0.92189884    -0.06800
C1364       C  0.84315635  0.21805287  0.90159019    -0.07500
C1365       C  0.78590436  0.21429381  0.90403158    -0.02100
C1366       C  0.75987026  0.17710055  0.92283202     0.04700
N1367       N  0.70887366  0.14831505  0.91706864     0.67300
H1368       H  0.76876055  0.13292718  0.95947859     0.16200
H1369       H  0.86475222  0.23644341  0.88372042     0.15900
N1370       N  0.93198968  0.20093177  0.91739466     0.75000
O1371       O  0.67141859  0.14394091  0.93641774    -0.38500
O1372       O  0.70836995  0.11380891  0.89622740    -0.38400
O1373       O  0.95478630  0.16325953  0.90190809    -0.39100
O1374       O  0.95722771  0.24724325  0.92103261    -0.39200
C1375       C  0.67306678  0.36519307  0.78091805    -0.11500
C1376       C  0.62149173  0.34005510  0.77717851     0.05500
C1377       C  0.59825290  0.30526705  0.79783027    -0.06800
C1378       C  0.61858161  0.31012202  0.82458122    -0.07500
C1379       C  0.67106884  0.33456104  0.82881851    -0.02100
C1380       C  0.70017358  0.35836525  0.80509559     0.04700
N1381       N  0.75833947  0.36897718  0.80293531     0.67300
H1382       H  0.69416190  0.38751882  0.76412149     0.16200
H1383       H  0.59870460  0.28499705  0.84058298     0.15900
N1384       N  0.56265779  0.25821154  0.79044230     0.75000
O1385       O  0.77672395  0.41676739  0.79682893    -0.38500
O1386       O  0.78921422  0.32847123  0.79783026    -0.38400
O1387       O  0.56148782  0.24095460  0.76510294    -0.39100
O1388       O  0.54595099  0.22507168  0.80886348    -0.39200
C1389       C  0.19018326  0.84335230  0.94092660    -0.11500
C1390       C  0.17820085  0.83947197  0.91276780     0.05500
C1391       C  0.14891103  0.88226017  0.90303044    -0.06800
C1392       C  0.15300732  0.93467291  0.91672057    -0.07500
C1393       C  0.17611945  0.94212238  0.94275058    -0.02100
C1394       C  0.19657431  0.89563377  0.95479811     0.04700
N1395       N  0.22873972  0.90140028  0.97899958     0.67300
H1396       H  0.20359043  0.80694733  0.95023270     0.16200
H1397       H  0.13461056  0.96879028  0.90791953     0.15900
N1398       N  0.11445878  0.87261122  0.87978699     0.75000
O1399       O  0.23216262  0.86081947  0.99412773    -0.38500
O1400       O  0.26389571  0.94110510  0.98110579    -0.38400
O1401       O  0.09133032  0.82551614  0.87529626    -0.39100
O1402       O  0.10012691  0.91273305  0.86655360    -0.39200
C1403       C  0.40240811  0.65459669  0.83639490    -0.11500
C1404       C  0.43916612  0.68974226  0.82143034     0.05500
C1405       C  0.42337323  0.74315157  0.81668405    -0.06800
C1406       C  0.37080639  0.75897187  0.82531932    -0.07500
C1407       C  0.33035606  0.72177049  0.83715250    -0.02100
C1408       C  0.34748386  0.66850409  0.84278207     0.04700
N1409       N  0.31103884  0.62998069  0.85701270     0.67300
H1410       H  0.41628198  0.61557337  0.84229933     0.16200
H1411       H  0.36462365  0.80271744  0.82479629     0.15900
N1412       N  0.46152042  0.78338565  0.80483365     0.75000
O1413       O  0.28692735  0.59133415  0.84316886    -0.38500
O1414       O  0.30612349  0.63170657  0.88343154    -0.38400
O1415       O  0.45918068  0.79396175  0.77950414    -0.39100
O1416       O  0.48570469  0.81805893  0.82099329    -0.39200
C1417       C  0.59723610  0.62762057  0.63988451    -0.11500
C1418       C  0.55942434  0.65948830  0.65643852     0.05500
C1419       C  0.57315322  0.71547105  0.66326524    -0.06800
C1420       C  0.62483101  0.73697414  0.65537400    -0.07500
C1421       C  0.66512426  0.70424505  0.64106651    -0.02100
C1422       C  0.64938785  0.64898652  0.63211439     0.04700
N1423       N  0.68348057  0.61463312  0.61352623     0.67300
H1424       H  0.58737795  0.58465152  0.63361755     0.16200
H1425       H  0.63053249  0.78135835  0.65830149     0.15900
N1426       N  0.53398446  0.75299242  0.67590025     0.75000
O1427       O  0.69810977  0.56943547  0.62209326    -0.38500
O1428       O  0.68254611  0.61929024  0.58746295    -0.38400
O1429       O  0.53384186  0.76429436  0.70197599    -0.39100
O1430       O  0.51660281  0.78829441  0.66058673    -0.39200
C1431       C  0.84164252  0.79106919  0.54775920    -0.11500
C1432       C  0.81481597  0.82442408  0.56937173     0.05500
C1433       C  0.80020428  0.87838687  0.56296417    -0.06800
C1434       C  0.81363645  0.89682084  0.53644097    -0.07500
C1435       C  0.84432202  0.86500155  0.51613559    -0.02100
C1436       C  0.85687084  0.81091619  0.52155633     0.04700
N1437       N  0.87841543  0.77331756  0.49977476     0.67300
H1438       H  0.84634654  0.74735773  0.54975712     0.16200
H1439       H  0.80118064  0.93774305  0.53214791     0.15900
N1440       N  0.76681129  0.91340186  0.58165650     0.75000
O1441       O  0.92781066  0.75988893  0.49962715    -0.38500
O1442       O  0.84519885  0.74228089  0.48638077    -0.38400
O1443       O  0.78763584  0.95913136  0.59082307    -0.39100
O1444       O  0.71520452  0.90847953  0.58096752    -0.39200
C1445       C  0.24023741  0.37187291  0.69502359    -0.11500
C1446       C  0.27420488  0.34212629  0.67466568     0.05500
C1447       C  0.32470810  0.32377057  0.68315273    -0.06800
C1448       C  0.33741155  0.33260332  0.71099441    -0.07500
C1449       C  0.30576172  0.36581571  0.73023056    -0.02100
C1450       C  0.25557016  0.38396367  0.72237689     0.04700
N1451       N  0.21588592  0.40615043  0.74295822     0.67300
H1452       H  0.19846920  0.38012920  0.69138842     0.16200
H1453       H  0.37233583  0.31245549  0.71770430     0.15900
N1454       N  0.35839280  0.28703401  0.66551497     0.75000
O1455       O  0.20268747  0.45599500  0.74235216    -0.38500
O1456       O  0.18491728  0.37298387  0.75677474    -0.38400
O1457       O  0.39882945  0.30715715  0.65118542    -0.39100
O1458       O  0.35767647  0.23614514  0.67030034    -0.39200
C1459       C  0.10844234  0.17432882  0.61628402    -0.11500
C1460       C  0.16323859  0.18242690  0.60487360     0.05500
C1461       C  0.19388477  0.13386152  0.59745067    -0.06800
C1462       C  0.17040084  0.08147021  0.60262456    -0.07500
C1463       C  0.11358994  0.07565743  0.60814380    -0.02100
C1464       C  0.08643890  0.12116312  0.62066252     0.04700
N1465       N  0.04057382  0.11326207  0.64041188     0.67300
H1466       H  0.08620897  0.20836620  0.62662126     0.16200
H1467       H  0.19333074  0.04515643  0.59552486     0.15900
N1468       N  0.25009347  0.13635915  0.58697476     0.75000
O1469       O  0.04924879  0.10846461  0.66580656    -0.38500
O1470       O  0.99249562  0.12137609  0.63386670    -0.38400
O1471       O  0.28722220  0.13154937  0.60367367    -0.39100
O1472       O  0.26104707  0.12591275  0.56111180    -0.39200
loop_ 
_geom_bond_atom_site_label_1 
_geom_bond_atom_site_label_2 
_geom_bond_distance 
_geom_bond_site_symmetry_2 
_ccdc_geom_bond_type 
C1            C3   1.563       .  S
C1            C5   1.566       .  S
C1            C4   1.546       .  S
C1          C724   1.509       .  S
C2            C6   1.576       .  S
C2            C8   1.578       .  S
C2            C7   1.553       .  S
C2          C710   1.520       .  S
C3           C11   1.403       .  A
C3            C6   1.389       .  A
C4           C15   1.401       .  A
C4            C7   1.352       .  A
C5           C19   1.404       .  A
C5            C8   1.396       .  A
C6            C9   1.406       .  A
C7           C13   1.410       .  A
C8           C16   1.409       .  A
C9           N10   1.372       .  A
C9           H22   1.081       .  S
N10          C11   1.369       .  A
N10          C44   1.485       .  S
C11          H12   1.082       .  S
C13          N14   1.366       .  A
C13          H23   1.081       .  S
N14          C15   1.353       .  A
N14         C104   1.474       .  S
C15          H21   1.075       .  S
C16          N17   1.375       .  A
C16          H18   1.081       .  S
N17          C19   1.369       .  A
N17         C285   1.489       .  S
C19          H20   1.080       .  S
N24          C29   1.364       .  A
N24          C28   1.367       .  A
N24          H56   1.041       .  S
N25          C32   1.369   1_655  A
N25          C33   1.366       .  A
N26          C31   1.367       .  A
N26          C30   1.363       .  A
N26          H57   1.040       .  S
N27          C34   1.361   1_655  A
N27          C35   1.365       .  A
C28          C36   1.385       .  A
C28          C44   1.436       .  A
C29          C45   1.437       .  A
C29          C37   1.388       .  A
C30          C38   1.386       .  A
C30          C47   1.433       .  A
C31          C46   1.436       .  A
C31          C39   1.384       .  A
C32          C44   1.443       .  A
C32          C40   1.386   1_455  A
C33          C47   1.440       .  A
C33          C41   1.385       .  A
C34          C42   1.389       .  A
C34          C45   1.436       .  A
C35          C43   1.382       .  A
C35          C46   1.429       .  A
C36          C37   1.382       .  A
C36          H48   1.082       .  S
C37          H49   1.082       .  S
C38          C39   1.382       .  A
C38          H50   1.082       .  S
C39          H51   1.081       .  S
C40          C41   1.383       .  A
C40          H52   1.081   1_655  S
C41          H53   1.082       .  S
C42          C43   1.378   1_455  A
C42          H54   1.081       .  S
C43          H55   1.082       .  S
C45         N375   1.472       .  S
C46          N67   1.479       .  S
C47         N329   1.471       .  S
C58          C60   1.579       .  S
C58          C62   1.555       .  S
C58          C61   1.566       .  S
C58         C696   1.506       .  S
C59          C63   1.545       .  S
C59          C65   1.538       .  S
C59          C64   1.569       .  S
C59         C685   1.492       .  S
C60          C68   1.409       .  A
C60          C63   1.386       .  A
C61          C72   1.405       .  A
C61          C64   1.389       .  A
C62          C76   1.405       .  A
C62          C65   1.356       .  A
C63          C66   1.394       .  A
C64          C70   1.399       .  A
C65          C73   1.399       .  A
C66          N67   1.365       .  A
C66          H79   1.082       .  S
N67          C68   1.372       .  A
C68          H69   1.082       .  S
C70          N71   1.362       .  A
C70          H80   1.082       .  S
N71          C72   1.370       .  A
N71         C135   1.476       .  S
C72          H78   1.080       .  S
C73          N74   1.365       .  A
C73          H75   1.082       .  S
N74          C76   1.371       .  A
N74         C252   1.483       .  S
C76          H77   1.082       .  S
N81          C86   1.371       .  A
N81          C85   1.374       .  A
N81         H113   1.041       .  S
N82          C89   1.369   1_545  A
N82          C90   1.367       .  A
N83          C88   1.364       .  A
N83          C87   1.360       .  A
N83         H114   1.040       .  S
N84          C91   1.362   1_545  A
N84          C92   1.367       .  A
C85          C93   1.387       .  A
C85         C101   1.452       .  A
C86         C102   1.447       .  A
C86          C94   1.386       .  A
C87          C95   1.386       .  A
C87         C104   1.428       .  A
C88         C103   1.429       .  A
C88          C96   1.385       .  A
C89         C101   1.440       .  A
C89          C97   1.384       .  A
C90         C104   1.444       .  A
C90          C98   1.387       .  A
C91          C99   1.390       .  A
C91         C102   1.440       .  A
C92         C100   1.383       .  A
C92         C103   1.433       .  A
C93          C94   1.384       .  A
C93         H105   1.078       .  S
C94         H106   1.081       .  S
C95          C96   1.379       .  A
C95         H107   1.082       .  S
C96         H108   1.082       .  S
C97          C98   1.381   1_565  A
C97         H109   1.081       .  S
C98         H110   1.079       .  S
C99         C100   1.382   1_565  A
C99         H111   1.082       .  S
C100        H112   1.082       .  S
C101        N379   1.496       .  S
C102        N162   1.482       .  S
C103        N356   1.475       .  S
N115        C120   1.366       .  A
N115        C119   1.366   1_545  A
N115        H147   1.041       .  S
N116        C123   1.365       .  A
N116        C124   1.364       .  A
N117        C122   1.366       .  A
N117        C121   1.366   1_545  A
N117        H148   1.041       .  S
N118        C125   1.367       .  A
N118        C126   1.367       .  A
C119        C127   1.384       .  A
C119        C135   1.435       .  A
C120        C136   1.440       .  A
C120        C128   1.389       .  A
C121        C129   1.387       .  A
C121        C138   1.438       .  A
C122        C137   1.437       .  A
C122        C130   1.385       .  A
C123        C135   1.433       .  A
C123        C131   1.385       .  A
C124        C138   1.436       .  A
C124        C132   1.387       .  A
C125        C133   1.386       .  A
C125        C136   1.440       .  A
C126        C134   1.386       .  A
C126        C137   1.440       .  A
C127        C128   1.382   1_565  A
C127        H139   1.082       .  S
C128        H140   1.081       .  S
C129        C130   1.382   1_565  A
C129        H141   1.082       .  S
C130        H142   1.080       .  S
C131        C132   1.379       .  A
C131        H143   1.082       .  S
C132        H144   1.082       .  S
C133        C134   1.379       .  A
C133        H145   1.082       .  S
C134        H146   1.081       .  S
C136        N336   1.483       .  S
C137        N222   1.483       .  S
C138        N313   1.476       .  S
C149        C151   1.553       .  S
C149        C153   1.571       .  S
C149        C152   1.573       .  S
C149        C654   1.521       .  S
C150        C154   1.571       .  S
C150        C156   1.551       .  S
C150        C155   1.559       .  S
C150        C671   1.518       .  S
C151        C159   1.393       .  A
C151        C154   1.395       .  A
C152        C163   1.404       .  A
C152        C155   1.378       .  A
C153        C167   1.416       .  A
C153        C156   1.370       .  A
C154        C157   1.406       .  A
C155        C161   1.406       .  A
C156        C164   1.399       .  A
C157        N158   1.375       .  A
C157        H170   1.080       .  S
N158        C159   1.363       .  A
N158        C193   1.478       .  S
C159        H160   1.082       .  S
C161        N162   1.365       .  A
C161        H171   1.082       .  S
N162        C163   1.365       .  A
C163        H169   1.076       .  S
C164        N165   1.358       .  A
C164        H166   1.081       .  S
N165        C167   1.364       .  A
N165        C250   1.476       .  S
C167        H168   1.077       .  S
N172        C177   1.365       .  A
N172        C176   1.363       .  A
N172        H204   1.040       .  S
N173        C180   1.366   1_655  A
N173        C181   1.367       .  A
N174        C179   1.362       .  A
N174        C178   1.365       .  A
N174        H205   1.040       .  S
N175        C182   1.368   1_655  A
N175        C183   1.367       .  A
C176        C184   1.388       .  A
C176        C192   1.433       .  A
C177        C193   1.430       .  A
C177        C185   1.385       .  A
C178        C186   1.385       .  A
C178        C195   1.431       .  A
C179        C194   1.432       .  A
C179        C187   1.387       .  A
C180        C192   1.437       .  A
C180        C188   1.385       .  A
C181        C195   1.441       .  A
C181        C189   1.387       .  A
C182        C190   1.384       .  A
C182        C193   1.440       .  A
C183        C191   1.388       .  A
C183        C194   1.443       .  A
C184        C185   1.379       .  A
C184        H196   1.081       .  S
C185        H197   1.082       .  S
C186        C187   1.379       .  A
C186        H198   1.082       .  S
C187        H199   1.082       .  S
C188        C189   1.381   1_455  A
C188        H200   1.082       .  S
C189        H201   1.081       .  S
C190        C191   1.384   1_455  A
C190        H202   1.081       .  S
C191        H203   1.081       .  S
C192        N352   1.473       .  S
C194        N306   1.475       .  S
C195        N215   1.479       .  S
C206        C208   1.566       .  S
C206        C210   1.556       .  S
C206        C209   1.591       .  S
C206        C643   1.528       .  S
C207        C211   1.569       .  S
C207        C213   1.543       .  S
C207        C212   1.560       .  S
C207        C629   1.506       .  S
C208        C216   1.405       .  A
C208        C211   1.387       .  A
C209        C220   1.420       .  A
C209        C212   1.388       .  A
C210        C224   1.398       .  A
C210        C213   1.367       .  A
C211        C214   1.403       .  A
C212        C218   1.400       .  A
C213        C221   1.403       .  A
C214        N215   1.360       .  A
C214        H227   1.080       .  S
N215        C216   1.368       .  A
C216        H217   1.078       .  S
C218        N219   1.367       .  A
C218        H228   1.079       .  S
N219        C220   1.385       .  A
N219        C283   1.501       .  S
C220        H226   1.082       .  S
C221        N222   1.373       .  A
C221        H223   1.082       .  S
N222        C224   1.365       .  A
C224        H225   1.081       .  S
N229        C234   1.361       .  A
N229        C233   1.367       .  A
N229        H261   1.040       .  S
N230        C237   1.370       .  A
N230        C974   1.365       .  A
N231        C236   1.373       .  A
N231        C235   1.368       .  A
N231        H262   1.040       .  S
N232        C239   1.369       .  A
N232        C976   1.371       .  A
C233        C241   1.384       .  A
C233        C249   1.432       .  A
C234        C250   1.437       .  A
C234        C242   1.390       .  A
C235        C243   1.391       .  A
C235        C252   1.452       .  A
C236        C251   1.445       .  A
C236        C244   1.385       .  A
C237        C249   1.440       .  A
C237        C245   1.382       .  A
C238        C252   1.445       .  A
C238        C246   1.389   1_554  A
C238        N966   1.367   1_554  A
C239        C247   1.385       .  A
C239        C250   1.442       .  A
C240        C248   1.380       .  A
C240        C251   1.445       .  A
C240        N968   1.371   1_554  A
C241        C242   1.383       .  A
C241        H253   1.082       .  S
C242        H254   1.082       .  S
C243        C244   1.388       .  A
C243        H255   1.081       .  S
C244        H256   1.082       .  S
C245        C982   1.380       .  A
C245        H257   1.082       .  S
C246        C981   1.379       .  A
C246        H258   1.081   1_556  S
C247        C984   1.383       .  A
C247        H259   1.082       .  S
C248        C983   1.383   1_554  A
C248        H260   1.080       .  S
C249        N310   1.483       .  S
C251        N382   1.499       .  S
N263        C267   1.376       .  A
N263       C1004   1.372       .  A
N263        H295   1.040       .  S
N264        C271   1.372       .  A
N264        C272   1.369       .  A
N265        C269   1.368       .  A
N265       C1006   1.372       .  A
N265        H296   1.040       .  S
N266        C273   1.365       .  A
N266        C274   1.369       .  A
C267        C275   1.387       .  A
C267        C283   1.456       .  A
C268        C284   1.451       .  A
C268        C276   1.388       .  A
C268        N999   1.370   1_554  A
C269        C277   1.391       .  A
C269        C286   1.449       .  A
C270        C285   1.441       .  A
C270        C278   1.383       .  A
C270       N1001   1.372       .  A
C271        C283   1.444       .  A
C271        C279   1.384       .  A
C272        C286   1.447       .  A
C272        C280   1.388       .  A
C273        C281   1.389       .  A
C273        C284   1.441       .  A
C274        C282   1.382       .  A
C274        C285   1.436       .  A
C275       C1012   1.387       .  A
C275        H287   1.082       .  S
C276       C1011   1.387   1_554  A
C276        H288   1.082       .  S
C277       C1014   1.385       .  A
C277        H289   1.081       .  S
C278       C1013   1.385   1_554  A
C278        H290   1.082       .  S
C279        C280   1.380       .  A
C279        H291   1.081       .  S
C280        H292   1.081       .  S
C281        C282   1.378       .  A
C281        H293   1.081       .  S
C282        H294   1.081       .  S
C284        N333   1.482       .  S
C286        N359   1.485       .  S
C297        C299   1.539       .  S
C297        C301   1.546       .  S
C297        C300   1.572       .  S
C297        C612   1.484       .  S
C298        C302   1.566       .  S
C298        C304   1.553       .  S
C298        C303   1.576       .  S
C298        C598   1.501       .  S
C299        C307   1.394       .  A
C299        C302   1.372       .  A
C300        C311   1.402       .  A
C300        C303   1.395       .  A
C301        C315   1.401       .  A
C301        C304   1.358       .  A
C302        C305   1.404       .  A
C303        C309   1.410       .  A
C304        C312   1.402       .  A
C305        N306   1.371       .  A
C305        H318   1.082       .  S
N306        C307   1.362       .  A
C307        H308   1.082       .  S
C309        N310   1.372       .  A
C309        H319   1.080       .  S
N310        C311   1.362       .  A
C311        H317   1.073       .  S
C312        N313   1.366       .  A
C312        H314   1.082       .  S
N313        C315   1.365       .  A
C315        H316   1.082       .  S
C320        C322   1.570       .  S
C320        C324   1.551       .  S
C320        C323   1.546       .  S
C320        C570   1.497       .  S
C321        C325   1.568       .  S
C321        C327   1.557       .  S
C321        C326   1.562       .  S
C321        C584   1.506       .  S
C322        C330   1.395       .  A
C322        C325   1.406       .  A
C323        C334   1.401       .  A
C323        C326   1.361       .  A
C324        C338   1.405       .  A
C324        C327   1.358       .  A
C325        C328   1.399       .  A
C326        C332   1.407       .  A
C327        C335   1.404       .  A
C328        N329   1.369       .  A
C328        H341   1.080       .  S
N329        C330   1.364       .  A
C330        H331   1.077       .  S
C332        N333   1.372       .  A
C332        H342   1.082       .  S
N333        C334   1.361       .  A
C334        H340   1.082       .  S
C335        N336   1.365       .  A
C335        H337   1.082       .  S
N336        C338   1.368       .  A
C338        H339   1.082       .  S
C343        C345   1.556       .  S
C343        C347   1.548       .  S
C343        C346   1.562       .  S
C343        C542   1.499       .  S
C344        C348   1.561       .  S
C344        C350   1.552       .  S
C344        C349   1.570       .  S
C344        C556   1.498       .  S
C345        C353   1.396       .  A
C345        C348   1.393       .  A
C346        C357   1.393       .  A
C346        C349   1.381       .  A
C347        C361   1.404       .  A
C347        C350   1.353       .  A
C348        C351   1.396       .  A
C349        C355   1.412       .  A
C350        C358   1.405       .  A
C351        N352   1.363       .  A
C351        H364   1.080       .  S
N352        C353   1.368       .  A
C353        H354   1.079       .  S
C355        N356   1.372       .  A
C355        H365   1.082       .  S
N356        C357   1.359       .  A
C357        H363   1.083       .  S
C358        N359   1.366       .  A
C358        H360   1.079       .  S
N359        C361   1.369       .  A
C361        H362   1.081       .  S
C366        C368   1.546       .  S
C366        C370   1.594       .  S
C366        C369   1.551       .  S
C366        C528   1.499       .  S
C367        C371   1.536       .  S
C367        C373   1.565       .  S
C367        C372   1.581       .  S
C367        C517   1.490       .  S
C368        C376   1.397       .  A
C368        C371   1.366       .  A
C369        C380   1.400       .  A
C369        C372   1.366       .  A
C370        C384   1.422       .  A
C370        C373   1.390       .  A
C371        C374   1.389       .  A
C372        C378   1.422       .  A
C373        C381   1.402       .  A
C374        N375   1.363       .  A
C374        H387   1.082       .  S
N375        C376   1.367       .  A
C376        H377   1.080       .  S
C378        N379   1.380       .  A
C378        H388   1.081       .  S
N379        C380   1.365       .  A
C380        H386   1.082       .  S
C381        N382   1.371       .  A
C381        H383   1.081       .  S
N382        C384   1.381       .  A
C384        H385   1.082       .  S
O389       Zr401   2.403   1_455  S
O389        C391   1.279       .  A
O390      Zr1163   2.352       .  S
O390        C391   1.279       .  A
C391        C727   1.450       .  S
O392       Zr404   2.418   1_556  S
O392        C394   1.273       .  A
O393      Zr1164   2.397   1_565  S
O393        C394   1.271       .  A
C394        C699   1.463   1_556  S
O395       Zr404   2.345   1_455  S
O395        C397   1.253       .  A
O396      Zr1163   2.408   1_565  S
O396        C397   1.259       .  A
C397        C514   1.425       .  S
O398       Zr401   2.382       .  S
O398        C400   1.257       .  A
O399      Zr1164   2.421   1_554  S
O399        C400   1.259       .  A
C400        C573   1.445       .  S
Zr401       O402   2.436       .  S
Zr401       O403   2.445       .  S
Zr401       O407   2.354   1_645  S
Zr401       O408   2.402   1_545  S
Zr401      O1167   2.373       .  S
Zr401      O1169   2.361   1_655  S
O402        H445   0.990   1_545  S
O403        H444   0.990       .  S
O403        H448   0.987       .  S
Zr404       O405   2.436       .  S
Zr404       O406   2.434   1_654  S
Zr404       O408   2.370       .  S
Zr404       O407   2.380   1_655  S
Zr404      O1168   2.388   1_654  S
Zr404      O1170   2.394   1_554  S
O405        H446   0.988       .  S
O405        H449   0.988       .  S
O406        H439   0.990       .  S
O407      Zr1163   2.426   1_565  S
O408      Zr1164   2.480   1_564  S
O408        H435   0.956       .  S
O409       Zr421   2.422   1_655  S
O409        C411   1.284       .  A
O410       Zr428   2.381       .  S
O410        C411   1.278       .  A
C411        C626   1.465       .  S
O412       Zr424   2.422   1_545  S
O412        C414   1.274   1_545  A
O413       Zr427   2.393       .  S
O413        C414   1.270   1_545  A
C414        C657   1.472       .  S
O415       Zr424   2.408   1_655  S
O415        C417   1.278       .  A
O416       Zr428   2.392       .  S
O416        C417   1.271   1_545  A
C417        C615   1.449       .  S
O418       Zr421   2.425       .  S
O418        C420   1.271       .  A
O419       Zr427   2.395       .  S
O419        C420   1.272       .  A
C420        C559   1.449       .  S
Zr421       O422   2.426       .  S
Zr421       O423   2.434   1_455  S
Zr421       O429   2.377   1_455  S
Zr421       O430   2.371       .  S
Zr421       O433   2.387       .  S
Zr421       O431   2.369   1_455  S
O422        H442   0.989       .  S
O422        H447   0.988       .  S
O423        H443   0.990       .  S
Zr424       O425   2.438   1_565  S
Zr424       O426   2.439       .  S
Zr424       O430   2.389   1_565  S
Zr424       O429   2.360   1_465  S
Zr424       O434   2.376   1_455  S
Zr424       O432   2.387       .  S
O425        H441   0.990       .  S
O426        H440   0.989       .  S
O426        H450   0.990       .  S
Zr427      O1126   2.349       .  S
Zr427      O1132   2.406   1_545  S
Zr427       O430   2.395       .  S
Zr427       O432   2.462   1_545  S
Zr427       O433   2.383       .  S
Zr427      O1143   2.424   1_545  S
Zr428      O1129   2.390   1_545  S
Zr428      O1135   2.410       .  S
Zr428       O429   2.379       .  S
Zr428       O431   2.425       .  S
Zr428       O434   2.380   1_545  S
Zr428      O1144   2.479   1_545  S
O429        H437   0.965       .  S
O431      Zr1137   2.375       .  S
O432      Zr1140   2.390   1_455  S
O432        H436   0.968       .  S
O433      Zr1137   2.352   1_455  S
O433        H438   0.963       .  S
O434      Zr1140   2.399       .  S
O451       Zr463   2.434       .  S
O451        C453   1.279       .  A
O452       Zr489   2.412       .  S
O452        C453   1.275       .  A
C453        C545   1.444       .  S
O454       Zr466   2.424       .  S
O454        C456   1.286       .  A
O455       Zr490   2.395       .  S
O455        C456   1.279       .  A
C456        C531   1.464       .  S
O457       Zr466   2.442       .  S
O457        C459   1.281       .  A
O458       Zr489   2.427       .  S
O458        C459   1.281       .  A
C459        C713   1.480       .  S
O460       Zr463   2.439       .  S
O460        C462   1.282       .  A
O461       Zr490   2.382       .  S
O461        C462   1.273       .  A
C462        C668   1.468       .  S
Zr463       O464   2.442       .  S
Zr463       O465   2.438       .  S
Zr463       O469   2.371       .  S
Zr463       O470   2.377       .  S
Zr463       O495   2.398       .  S
Zr463       O493   2.273       .  S
O464        H507   0.987       .  S
O465        H506   0.990       .  S
O465        H510   0.990       .  S
Zr466       O467   2.437       .  S
Zr466       O468   2.433       .  S
Zr466       O470   2.373       .  S
Zr466       O469   2.389       .  S
Zr466       O494   2.369       .  S
Zr466       O496   2.375       .  S
O467        H508   0.990       .  S
O467        H511   0.990       .  S
O468        H501   0.990       .  S
O469       Zr489   2.387       .  S
O470       Zr490   2.393       .  S
O470        H497   0.964       .  S
O471       Zr483   2.400       .  S
O471        C473   1.279       .  A
O472       Zr490   2.378       .  S
O472        C473   1.274       .  A
C473        C601   1.447       .  S
O474       Zr486   2.404       .  S
O474        C476   1.270       .  A
O475       Zr489   2.404       .  S
O475        C476   1.273       .  A
C476        C587   1.449       .  S
O477       Zr486   2.423       .  S
O477        C479   1.287       .  A
O478       Zr490   2.364       .  S
O478        C479   1.270       .  A
C479        C682   1.460       .  S
O480       Zr483   2.445       .  S
O480        C482   1.283       .  A
O481       Zr489   2.384       .  S
O481        C482   1.276       .  A
C482        C640   1.478       .  S
Zr483       O484   2.432       .  S
Zr483       O485   2.434       .  S
Zr483       O491   2.348       .  S
Zr483       O492   2.352       .  S
Zr483       O495   2.335       .  S
Zr483       O493   2.275       .  S
O484        H504   0.990       .  S
O484        H509   0.990       .  S
O485        H505   0.990       .  S
Zr486       O487   2.442       .  S
Zr486       O488   2.434       .  S
Zr486       O492   2.406       .  S
Zr486       O491   2.396       .  S
Zr486       O496   2.326       .  S
Zr486       O494   2.375       .  S
O487        H503   0.990       .  S
O488        H502   0.990       .  S
O488        H512   0.990       .  S
Zr489       O492   2.395       .  S
Zr489       O494   2.407       .  S
Zr489       O495   2.410       .  S
Zr490       O491   2.385       .  S
Zr490       O496   2.358       .  S
Zr490       O493   2.256       .  S
O491        H499   0.964       .  S
O494        H498   0.962       .  S
O495        H500   0.965       .  S
C513        C514   1.383       .  A
C513        C518   1.387       .  A
C513        H520   1.082       .  S
C514        C515   1.401       .  A
C515        C516   1.376       .  A
C515        N522   1.427       .  S
C516        C517   1.395       .  A
C516        H521   1.080       .  S
C517        C518   1.421       .  A
C518        N519   1.432       .  S
N519        O523   1.260       .  A
N519        O524   1.261       .  A
N522        O526   1.262       .  A
N522        O525   1.261       .  A
C527        C528   1.386       .  A
C527        C532   1.383       .  A
C527        H534   1.079       .  S
C528        C529   1.436       .  A
C529        C530   1.390       .  A
C529        N536   1.433       .  S
C530        C531   1.393       .  A
C530        H535   1.085       .  S
C531        C532   1.408       .  A
C532        N533   1.419       .  S
N533        O537   1.261       .  A
N533        O538   1.262       .  A
N536        O540   1.261       .  A
N536        O539   1.263       .  A
C541        C542   1.411       .  A
C541        C546   1.369       .  A
C541        H548   1.075       .  S
C542        C543   1.417       .  A
C543        C544   1.392       .  A
C543        N550   1.427       .  S
C544        C545   1.393       .  A
C544        H549   1.076       .  S
C545        C546   1.391       .  A
C546        N547   1.426       .  S
N547        O551   1.262       .  A
N547        O552   1.262       .  A
N550        O554   1.261       .  A
N550        O553   1.262       .  A
C555        C556   1.410       .  A
C555        C560   1.390       .  A
C555        H562   1.077       .  S
C556        C557   1.429       .  A
C557        C558   1.385       .  A
C557        N564   1.429       .  S
C558        C559   1.392       .  A
C558        H563   1.085       .  S
C559        C560   1.405       .  A
C560        N561   1.442       .  S
N561        O565   1.263       .  A
N561        O566   1.263       .  A
N564        O568   1.262       .  A
N564        O567   1.263       .  A
C569        C570   1.420       .  A
C569        C574   1.377       .  A
C569        H576   1.078       .  S
C570        C571   1.406       .  A
C571        C572   1.389       .  A
C571        N578   1.432       .  S
C572        C573   1.396       .  A
C572        H577   1.064       .  S
C573        C574   1.390       .  A
C574        N575   1.430       .  S
N575        O579   1.262       .  A
N575        O580   1.262       .  A
N578        O582   1.261       .  A
N578        O581   1.262       .  A
C583        C584   1.420       .  A
C583        C588   1.369       .  A
C583        H590   1.075       .  S
C584        C585   1.414       .  A
C585        C586   1.396       .  A
C585        N592   1.431       .  S
C586        C587   1.405       .  A
C586        H591   1.076       .  S
C587        C588   1.387       .  A
C588        N589   1.432       .  S
N589        O593   1.262       .  A
N589        O594   1.261       .  A
N592        O596   1.261       .  A
N592        O595   1.262       .  A
C597        C598   1.414       .  A
C597        C602   1.384       .  A
C597        H604   1.076       .  S
C598        C599   1.418       .  A
C599        C600   1.387       .  A
C599        N606   1.429       .  S
C600        C601   1.397       .  A
C600        H605   1.082       .  S
C601        C602   1.396       .  A
C602        N603   1.430       .  S
N603        O607   1.262       .  A
N603        O608   1.262       .  A
N606        O610   1.261       .  A
N606        O609   1.262       .  A
C611        C612   1.406       .  A
C611        C616   1.380       .  A
C611        H618   1.085       .  S
C612        C613   1.387       .  A
C613        C614   1.385       .  A
C613        N620   1.438       .  S
C614        C615   1.409       .  A
C614        H619   1.075       .  S
C615        C616   1.405       .  A
C616        N617   1.429       .  S
N617        O621   1.261       .  A
N617        O622   1.262       .  A
N620        O624   1.262       .  A
N620        O623   1.263       .  A
C625        C626   1.409       .  A
C625        C630   1.395       .  A
C625        H632   1.084       .  S
C626        C627   1.413       .  A
C627        C628   1.380       .  A
C627        N634   1.427       .  S
C628        C629   1.391       .  A
C628        H633   1.081       .  S
C629        C630   1.411       .  A
C630        N631   1.434       .  S
N631        O635   1.262       .  A
N631        O636   1.262       .  A
N634        O638   1.262       .  A
N634        O637   1.262       .  A
C639        C640   1.392       .  A
C639        C644   1.397       .  A
C639        H646   1.084       .  S
C640        C641   1.409       .  A
C641        C642   1.402       .  A
C641        N648   1.442       .  S
C642        C643   1.409       .  A
C642        H647   1.082       .  S
C643        C644   1.435       .  A
C644        N645   1.429       .  S
N645        O649   1.263       .  A
N645        O650   1.262       .  A
N648        O652   1.261       .  A
N648        O651   1.262       .  A
C653        C654   1.396       .  A
C653        C658   1.398       .  A
C653        H660   1.080       .  S
C654        C655   1.402       .  A
C655        C656   1.394       .  A
C655        N662   1.440       .  S
C656        C657   1.402       .  A
C656        H661   1.075       .  S
C657        C658   1.417       .  A
C658        N659   1.440       .  S
N659        O663   1.262       .  A
N659        O664   1.263       .  A
N662        O666   1.262       .  A
N662        O665   1.260       .  A
C667        C668   1.400       .  A
C667        C672   1.405       .  A
C667        H674   1.076       .  S
C668        C669   1.401       .  A
C669        C670   1.383       .  A
C669        N676   1.431       .  S
C670        C671   1.415       .  A
C670        H675   1.076       .  S
C671        C672   1.417       .  A
C672        N673   1.429       .  S
N673        O677   1.260       .  A
N673        O678   1.262       .  A
N676        O680   1.262       .  A
N676        O679   1.262       .  A
C681        C682   1.401       .  A
C681        C686   1.385       .  A
C681        H688   1.084       .  S
C682        C683   1.417       .  A
C683        C684   1.373       .  A
C683        N690   1.432       .  S
C684        C685   1.396       .  A
C684        H689   1.074       .  S
C685        C686   1.418       .  A
C686        N687   1.430       .  S
N687        O691   1.262       .  A
N687        O692   1.262       .  A
N690        O694   1.263       .  A
N690        O693   1.261       .  A
C695        C696   1.414       .  A
C695        C700   1.392       .  A
C695        H702   1.077       .  S
C696        C697   1.420       .  A
C697        C698   1.384       .  A
C697        N704   1.430       .  S
C698        C699   1.398       .  A
C698        H703   1.082       .  S
C699        C700   1.400       .  A
C700        N701   1.429   1_554  S
N701        O705   1.261   1_556  A
N701        O706   1.262       .  A
N704        O708   1.262       .  A
N704        O707   1.263       .  A
C709        C710   1.417       .  A
C709        C714   1.399       .  A
C709        H716   1.075       .  S
C710        C711   1.422       .  A
C711        C712   1.393       .  A
C711        N718   1.433       .  S
C712        C713   1.397       .  A
C712        H717   1.077       .  S
C713        C714   1.403       .  A
C714        N715   1.431       .  S
N715        O719   1.261       .  A
N715        O720   1.262       .  A
N718        O722   1.262       .  A
N718        O721   1.260       .  A
C723        C724   1.421       .  A
C723        C728   1.392       .  A
C723        H730   1.079       .  S
C724        C725   1.430       .  A
C725        C726   1.397       .  A
C725        N732   1.427       .  S
C726        C727   1.397       .  A
C726        H731   1.085       .  S
C727        C728   1.393       .  A
C728        N729   1.431       .  S
N729        O733   1.262       .  A
N729        O734   1.261   1_455  A
N732        O736   1.262       .  A
N732        O735   1.262       .  A
C737        C739   1.563       .  S
C737        C741   1.562       .  S
C737        C740   1.546       .  S
C737       C1460   1.507       .  S
C738        C742   1.572       .  S
C738        C744   1.580       .  S
C738        C743   1.554       .  S
C738       C1446   1.518       .  S
C739        C747   1.403       .  A
C739        C742   1.389       .  A
C740        C751   1.401       .  A
C740        C743   1.351       .  A
C741        C755   1.402       .  A
C741        C744   1.394       .  A
C742        C745   1.402       .  A
C743        C749   1.411       .  A
C744        C752   1.411       .  A
C745        N746   1.369       .  A
C745        H758   1.081       .  S
N746        C747   1.370       .  A
N746        C780   1.483       .  S
C747        H748   1.082       .  S
C749        N750   1.367       .  A
C749        H759   1.081       .  S
N750        C751   1.355       .  A
N750        C840   1.477       .  S
C751        H757   1.077       .  S
C752        N753   1.376       .  A
C752        H754   1.081       .  S
N753        C755   1.366       .  A
N753       C1021   1.488       .  S
C755        H756   1.080       .  S
N760        C765   1.367       .  A
N760        C764   1.366       .  A
N760        H792   1.040       .  S
N761        C768   1.368   1_655  A
N761        C769   1.367       .  A
N762        C767   1.366       .  A
N762        C766   1.366       .  A
N762        H793   1.040       .  S
N763        C770   1.365   1_655  A
N763        C771   1.366       .  A
C764        C772   1.386       .  A
C764        C780   1.438       .  A
C765        C781   1.437       .  A
C765        C773   1.386       .  A
C766        C774   1.385       .  A
C766        C783   1.435       .  A
C767        C782   1.438       .  A
C767        C775   1.386       .  A
C768        C780   1.443       .  A
C768        C776   1.387   1_455  A
C769        C783   1.439       .  A
C769        C777   1.384       .  A
C770        C778   1.388       .  A
C770        C781   1.440       .  A
C771        C779   1.384       .  A
C771        C782   1.434       .  A
C772        C773   1.381       .  A
C772        H784   1.082       .  S
C773        H785   1.082       .  S
C774        C775   1.383       .  A
C774        H786   1.082       .  S
C775        H787   1.080       .  S
C776        C777   1.383       .  A
C776        H788   1.081   1_655  S
C777        H789   1.082       .  S
C778        C779   1.378   1_455  A
C778        H790   1.081       .  S
C779        H791   1.082       .  S
C781       N1111   1.479       .  S
C782        N803   1.478       .  S
C783       N1065   1.477       .  S
C794        C796   1.575       .  S
C794        C798   1.548       .  S
C794        C797   1.564       .  S
C794       C1432   1.507       .  S
C795        C799   1.550       .  S
C795        C801   1.538       .  S
C795        C800   1.567       .  S
C795       C1421   1.501       .  S
C796        C804   1.404       .  A
C796        C799   1.388       .  A
C797        C808   1.403       .  A
C797        C800   1.390       .  A
C798        C812   1.401       .  A
C798        C801   1.357       .  A
C799        C802   1.395       .  A
C800        C806   1.399       .  A
C801        C809   1.395       .  A
C802        N803   1.366       .  A
C802        H815   1.081       .  S
N803        C804   1.370       .  A
C804        H805   1.082       .  S
C806        N807   1.364       .  A
C806        H816   1.082       .  S
N807        C808   1.369       .  A
N807        C871   1.475       .  S
C808        H814   1.080       .  S
C809        N810   1.363       .  A
C809        H811   1.082       .  S
N810        C812   1.368       .  A
N810        C988   1.476       .  S
C812        H813   1.082       .  S
N817        C822   1.369       .  A
N817        C821   1.373       .  A
N817        H849   1.041       .  S
N818        C825   1.370   1_545  A
N818        C826   1.367       .  A
N819        C824   1.367       .  A
N819        C823   1.363       .  A
N819        H850   1.040       .  S
N820        C827   1.364   1_545  A
N820        C828   1.367       .  A
C821        C829   1.387       .  A
C821        C837   1.450       .  A
C822        C838   1.445       .  A
C822        C830   1.386       .  A
C823        C831   1.387       .  A
C823        C840   1.434       .  A
C824        C839   1.435       .  A
C824        C832   1.385       .  A
C825        C837   1.440       .  A
C825        C833   1.384       .  A
C826        C840   1.445       .  A
C826        C834   1.388       .  A
C827        C835   1.390   1_565  A
C827        C838   1.442       .  A
C828        C836   1.383       .  A
C828        C839   1.434       .  A
C829        C830   1.384       .  A
C829        H841   1.080       .  S
C830        H842   1.082       .  S
C831        C832   1.381       .  A
C831        H843   1.082       .  S
C832        H844   1.082       .  S
C833        C834   1.381   1_565  A
C833        H845   1.081       .  S
C834        H846   1.080       .  S
C835        C836   1.381       .  A
C835        H847   1.081   1_545  S
C836        H848   1.082       .  S
C837       N1115   1.496       .  S
C838        N898   1.482       .  S
C839       N1092   1.479       .  S
N851        C856   1.367       .  A
N851        C855   1.366   1_545  A
N851        H883   1.041       .  S
N852        C859   1.364       .  A
N852        C860   1.364       .  A
N853        C858   1.365       .  A
N853        C857   1.366   1_545  A
N853        H884   1.041       .  S
N854        C861   1.369       .  A
N854        C862   1.369       .  A
C855        C863   1.384       .  A
C855        C871   1.436       .  A
C856        C872   1.441       .  A
C856        C864   1.388       .  A
C857        C865   1.386       .  A
C857        C874   1.437       .  A
C858        C873   1.437       .  A
C858        C866   1.386       .  A
C859        C871   1.432       .  A
C859        C867   1.384       .  A
C860        C874   1.434       .  A
C860        C868   1.386       .  A
C861        C869   1.385       .  A
C861        C872   1.444       .  A
C862        C870   1.386       .  A
C862        C873   1.444       .  A
C863        C864   1.383   1_565  A
C863        H875   1.082       .  S
C864        H876   1.081       .  S
C865        C866   1.382   1_565  A
C865        H877   1.082       .  S
C866        H878   1.081       .  S
C867        C868   1.378       .  A
C867        H879   1.082       .  S
C868        H880   1.082       .  S
C869        C870   1.380       .  A
C869        H881   1.081       .  S
C870        H882   1.080       .  S
C872       N1072   1.487       .  S
C873        N958   1.483       .  S
C874       N1049   1.476       .  S
C885        C887   1.553       .  S
C885        C889   1.568       .  S
C885        C888   1.573       .  S
C885       C1390   1.518       .  S
C886        C890   1.574       .  S
C886        C892   1.556       .  S
C886        C891   1.560       .  S
C886       C1407   1.519       .  S
C887        C895   1.393       .  A
C887        C890   1.395       .  A
C888        C899   1.405       .  A
C888        C891   1.376       .  A
C889        C903   1.415       .  A
C889        C892   1.370       .  A
C890        C893   1.408       .  A
C891        C897   1.406       .  A
C892        C900   1.402       .  A
C893        N894   1.376       .  A
C893        H906   1.080       .  S
N894        C895   1.363       .  A
N894        C929   1.479       .  S
C895        H896   1.082       .  S
C897        N898   1.365       .  A
C897        H907   1.082       .  S
N898        C899   1.364       .  A
C899        H905   1.076       .  S
C900        N901   1.362       .  A
C900        H902   1.081       .  S
N901        C903   1.364       .  A
N901        C986   1.479       .  S
C903        H904   1.077       .  S
N908        C913   1.366       .  A
N908        C912   1.363       .  A
N908        H940   1.040       .  S
N909        C916   1.366   1_655  A
N909        C917   1.368       .  A
N910        C915   1.364       .  A
N910        C914   1.367       .  A
N910        H941   1.040       .  S
N911        C918   1.368   1_655  A
N911        C919   1.367       .  A
C912        C920   1.388       .  A
C912        C928   1.436       .  A
C913        C929   1.432       .  A
C913        C921   1.384       .  A
C914        C922   1.385       .  A
C914        C931   1.434       .  A
C915        C930   1.435       .  A
C915        C923   1.387       .  A
C916        C928   1.438       .  A
C916        C924   1.385       .  A
C917        C931   1.442       .  A
C917        C925   1.387       .  A
C918        C926   1.384       .  A
C918        C929   1.440       .  A
C919        C927   1.388       .  A
C919        C930   1.444       .  A
C920        C921   1.378       .  A
C920        H932   1.081       .  S
C921        H933   1.082       .  S
C922        C923   1.379       .  A
C922        H934   1.082       .  S
C923        H935   1.082       .  S
C924        C925   1.381   1_455  A
C924        H936   1.082       .  S
C925        H937   1.081       .  S
C926        C927   1.383   1_455  A
C926        H938   1.081       .  S
C927        H939   1.081       .  S
C928       N1088   1.475       .  S
C930       N1042   1.476       .  S
C931        N951   1.482       .  S
C942        C944   1.566       .  S
C942        C946   1.554       .  S
C942        C945   1.590       .  S
C942       C1379   1.524       .  S
C943        C947   1.566       .  S
C943        C949   1.544       .  S
C943        C948   1.561       .  S
C943       C1365   1.501       .  S
C944        C952   1.403       .  A
C944        C947   1.385       .  A
C945        C956   1.420       .  A
C945        C948   1.388       .  A
C946        C960   1.398       .  A
C946        C949   1.365       .  A
C947        C950   1.403       .  A
C948        C954   1.400       .  A
C949        C957   1.404       .  A
C950        N951   1.364       .  A
C950        H963   1.081       .  S
N951        C952   1.369       .  A
C952        H953   1.078       .  S
C954        N955   1.366       .  A
C954        H964   1.079       .  S
N955        C956   1.384       .  A
N955       C1019   1.499       .  S
C956        H962   1.082       .  S
C957        N958   1.374       .  A
C957        H959   1.082       .  S
N958        C960   1.365       .  A
C960        H961   1.081       .  S
N965        C970   1.362       .  A
N965        C969   1.365       .  A
N965        H997   1.040       .  S
N966        C973   1.370       .  A
N967        C972   1.373       .  A
N967        C971   1.364       .  A
N967        H998   1.041       .  S
N968        C975   1.371       .  A
C969        C977   1.384       .  A
C969        C985   1.429       .  A
C970        C986   1.435       .  A
C970        C978   1.389       .  A
C971        C979   1.392       .  A
C971        C988   1.447       .  A
C972        C987   1.440       .  A
C972        C980   1.383       .  A
C973        C985   1.439       .  A
C973        C981   1.383       .  A
C974        C988   1.444       .  A
C974        C982   1.390       .  A
C975        C983   1.385       .  A
C975        C986   1.444       .  A
C976        C984   1.379       .  A
C976        C987   1.444       .  A
C977        C978   1.381       .  A
C977        H989   1.082       .  S
C978        H990   1.082       .  S
C979        C980   1.386       .  A
C979        H991   1.082       .  S
C980        H992   1.082       .  S
C981        H993   1.082       .  S
C982        H994   1.081       .  S
C983        H995   1.082       .  S
C984        H996   1.080       .  S
C985       N1046   1.480       .  S
C987       N1118   1.499       .  S
N999       C1003   1.375       .  A
N999       H1031   1.040       .  S
N1000      C1007   1.371       .  A
N1000      C1008   1.366       .  A
N1001      C1005   1.366   1_554  A
N1001      H1032   1.040       .  S
N1002      C1009   1.367       .  A
N1002      C1010   1.370       .  A
C1003      C1011   1.386       .  A
C1003      C1019   1.453       .  A
C1004      C1020   1.454       .  A
C1004      C1012   1.387       .  A
C1005      C1013   1.391       .  A
C1005      C1022   1.447       .  A
C1006      C1021   1.443       .  A
C1006      C1014   1.384       .  A
C1007      C1019   1.440       .  A
C1007      C1015   1.384       .  A
C1008      C1022   1.443       .  A
C1008      C1016   1.388       .  A
C1009      C1017   1.389       .  A
C1009      C1020   1.443       .  A
C1010      C1018   1.382       .  A
C1010      C1021   1.438       .  A
C1011      H1023   1.082       .  S
C1012      H1024   1.082       .  S
C1013      H1025   1.081       .  S
C1014      H1026   1.082       .  S
C1015      C1016   1.380       .  A
C1015      H1027   1.081       .  S
C1016      H1028   1.081       .  S
C1017      C1018   1.378       .  A
C1017      H1029   1.081       .  S
C1018      H1030   1.081       .  S
C1020      N1069   1.488       .  S
C1022      N1095   1.480       .  S
C1033      C1035   1.540       .  S
C1033      C1037   1.545       .  S
C1033      C1036   1.571       .  S
C1033      C1348   1.484       .  S
C1034      C1038   1.568       .  S
C1034      C1040   1.553       .  S
C1034      C1039   1.573       .  S
C1034      C1334   1.503       .  S
C1035      C1043   1.394       .  A
C1035      C1038   1.373       .  A
C1036      C1047   1.400       .  A
C1036      C1039   1.396       .  A
C1037      C1051   1.402       .  A
C1037      C1040   1.357       .  A
C1038      C1041   1.406       .  A
C1039      C1045   1.408       .  A
C1040      C1048   1.402       .  A
C1041      N1042   1.371       .  A
C1041      H1054   1.082       .  S
N1042      C1043   1.363       .  A
C1043      H1044   1.082       .  S
C1045      N1046   1.371       .  A
C1045      H1055   1.080       .  S
N1046      C1047   1.360       .  A
C1047      H1053   1.071       .  S
C1048      N1049   1.365       .  A
C1048      H1050   1.082       .  S
N1049      C1051   1.365       .  A
C1051      H1052   1.082       .  S
C1056      C1058   1.574       .  S
C1056      C1060   1.554       .  S
C1056      C1059   1.552       .  S
C1056      C1306   1.497       .  S
C1057      C1061   1.570       .  S
C1057      C1063   1.558       .  S
C1057      C1062   1.563       .  S
C1057      C1320   1.506       .  S
C1058      C1066   1.399       .  A
C1058      C1061   1.406       .  A
C1059      C1070   1.407       .  A
C1059      C1062   1.360       .  A
C1060      C1074   1.408       .  A
C1060      C1063   1.356       .  A
C1061      C1064   1.401       .  A
C1062      C1068   1.408       .  A
C1063      C1071   1.406       .  A
C1064      N1065   1.370       .  A
C1064      H1077   1.079       .  S
N1065      C1066   1.367       .  A
C1066      H1067   1.078       .  S
C1068      N1069   1.373       .  A
C1068      H1078   1.082       .  S
N1069      C1070   1.364       .  A
C1070      H1076   1.082       .  S
C1071      N1072   1.366       .  A
C1071      H1073   1.082       .  S
N1072      C1074   1.371       .  A
C1074      H1075   1.082       .  S
C1079      C1081   1.553       .  S
C1079      C1083   1.546       .  S
C1079      C1082   1.563       .  S
C1079      C1278   1.500       .  S
C1080      C1084   1.565       .  S
C1080      C1086   1.550       .  S
C1080      C1085   1.572       .  S
C1080      C1292   1.504       .  S
C1081      C1089   1.394       .  A
C1081      C1084   1.395       .  A
C1082      C1093   1.395       .  A
C1082      C1085   1.382       .  A
C1083      C1097   1.403       .  A
C1083      C1086   1.353       .  A
C1084      C1087   1.398       .  A
C1085      C1091   1.412       .  A
C1086      C1094   1.402       .  A
C1087      N1088   1.366       .  A
C1087      H1100   1.080       .  S
N1088      C1089   1.367       .  A
C1089      H1090   1.080       .  S
C1091      N1092   1.374       .  A
C1091      H1101   1.082       .  S
N1092      C1093   1.361       .  A
C1093      H1099   1.083       .  S
C1094      N1095   1.364       .  A
C1094      H1096   1.079       .  S
N1095      C1097   1.368       .  A
C1097      H1098   1.082       .  S
C1102      C1104   1.562       .  S
C1102      C1106   1.593       .  S
C1102      C1105   1.556       .  S
C1102      C1264   1.511       .  S
C1103      C1107   1.537       .  S
C1103      C1109   1.561       .  S
C1103      C1108   1.580       .  S
C1103      C1253   1.495       .  S
C1104      C1112   1.406       .  A
C1104      C1107   1.369       .  A
C1105      C1116   1.402       .  A
C1105      C1108   1.366       .  A
C1106      C1120   1.423       .  A
C1106      C1109   1.391       .  A
C1107      C1110   1.392       .  A
C1108      C1114   1.423       .  A
C1109      C1117   1.398       .  A
C1110      N1111   1.363       .  A
C1110      H1123   1.082       .  S
N1111      C1112   1.371       .  A
C1112      H1113   1.080       .  S
C1114      N1115   1.379       .  A
C1114      H1124   1.081       .  S
N1115      C1116   1.363       .  A
C1116      H1122   1.081       .  S
C1117      N1118   1.368       .  A
C1117      H1119   1.081       .  S
N1118      C1120   1.385       .  A
C1120      H1121   1.082       .  S
O1125     Zr1137   2.407   1_455  S
O1125      C1127   1.280       .  A
O1126      C1127   1.278       .  A
C1127      C1463   1.450       .  S
O1128     Zr1140   2.421       .  S
O1128      C1130   1.274       .  A
O1129      C1130   1.268       .  A
C1130      C1435   1.463       .  S
O1131     Zr1140   2.355   1_455  S
O1131      C1133   1.255       .  A
O1132      C1133   1.259       .  A
C1133      C1250   1.428       .  S
O1134     Zr1137   2.381       .  S
O1134      C1136   1.257       .  A
O1135      C1136   1.258       .  A
C1136      C1309   1.443       .  S
Zr1137     O1138   2.435       .  S
Zr1137     O1139   2.442       .  S
Zr1137     O1143   2.354   1_645  S
Zr1137     O1144   2.393   1_545  S
O1138      H1181   0.990   1_545  S
O1139      H1180   0.990       .  S
O1139      H1184   0.988   1_655  S
Zr1140     O1141   2.437       .  S
Zr1140     O1142   2.434   1_655  S
Zr1140     O1144   2.367       .  S
Zr1140     O1143   2.382   1_655  S
O1141      H1182   0.989       .  S
O1141      H1185   0.988       .  S
O1142      H1175   0.990       .  S
O1144      H1171   0.971       .  S
O1145     Zr1157   2.422   1_655  S
O1145      C1147   1.284       .  A
O1146     Zr1164   2.375       .  S
O1146      C1147   1.277       .  A
C1147      C1362   1.458       .  S
O1148     Zr1160   2.422   1_545  S
O1148      C1150   1.273   1_545  A
O1149     Zr1163   2.392   1_566  S
O1149      C1150   1.269       .  A
C1150      C1393   1.470       .  S
O1151     Zr1160   2.408   1_655  S
O1151      C1153   1.279       .  A
O1152     Zr1164   2.388       .  S
O1152      C1153   1.269   1_545  A
C1153      C1351   1.447       .  S
O1154     Zr1157   2.429   1_554  S
O1154      C1156   1.270       .  A
O1155     Zr1163   2.394       .  S
O1155      C1156   1.271       .  A
C1156      C1295   1.453   1_554  S
Zr1157     O1158   2.425       .  S
Zr1157     O1159   2.436   1_456  S
Zr1157     O1165   2.376   1_455  S
Zr1157     O1166   2.366       .  S
Zr1157     O1169   2.387   1_556  S
Zr1157     O1167   2.373   1_456  S
O1158      H1178   0.988       .  S
O1158      H1183   0.988       .  S
O1159      H1179   0.990   1_655  S
Zr1160     O1161   2.438   1_565  S
Zr1160     O1162   2.437       .  S
Zr1160     O1166   2.382   1_565  S
Zr1160     O1165   2.355   1_465  S
Zr1160     O1170   2.372   1_455  S
Zr1160     O1168   2.387       .  S
O1161      H1177   0.990       .  S
O1162      H1176   0.989       .  S
O1162      H1186   0.990       .  S
Zr1163     O1166   2.396   1_554  S
Zr1163     O1168   2.464   1_544  S
Zr1163     O1169   2.389       .  S
Zr1164     O1165   2.384       .  S
Zr1164     O1167   2.427   1_556  S
Zr1164     O1170   2.376   1_545  S
O1165      H1173   0.965       .  S
O1168      H1172   0.968       .  S
O1169      H1174   0.963       .  S
O1187     Zr1199   2.426       .  S
O1187      C1189   1.280       .  A
O1188     Zr1225   2.402       .  S
O1188      C1189   1.277       .  A
C1189      C1281   1.447       .  S
O1190     Zr1202   2.426       .  S
O1190      C1192   1.288       .  A
O1191     Zr1226   2.377       .  S
O1191      C1192   1.278       .  A
C1192      C1267   1.464       .  S
O1193     Zr1202   2.447       .  S
O1193      C1195   1.281       .  A
O1194     Zr1225   2.418       .  S
O1194      C1195   1.278       .  A
C1195      C1449   1.478       .  S
O1196     Zr1199   2.433       .  S
O1196      C1198   1.280       .  A
O1197     Zr1226   2.387       .  S
O1197      C1198   1.274       .  A
C1198      C1404   1.466       .  S
Zr1199     O1200   2.435       .  S
Zr1199     O1201   2.438       .  S
Zr1199     O1205   2.365       .  S
Zr1199     O1206   2.375       .  S
Zr1199     O1229   2.375       .  S
Zr1199     O1231   2.386       .  S
O1200      H1243   0.987       .  S
O1201      H1242   0.990       .  S
O1201      H1246   0.990       .  S
Zr1202     O1203   2.441       .  S
Zr1202     O1204   2.433       .  S
Zr1202     O1206   2.365       .  S
Zr1202     O1205   2.383       .  S
Zr1202     O1230   2.366       .  S
Zr1202     O1232   2.378       .  S
O1203      H1244   0.990       .  S
O1203      H1247   0.990       .  S
O1204      H1237   0.990       .  S
O1205     Zr1225   2.383       .  S
O1206     Zr1226   2.397       .  S
O1206      H1233   0.963       .  S
O1207     Zr1219   2.398       .  S
O1207      C1209   1.279       .  A
O1208     Zr1226   2.391       .  S
O1208      C1209   1.277       .  A
C1209      C1337   1.449       .  S
O1210     Zr1222   2.406       .  S
O1210      C1212   1.272       .  A
O1211     Zr1225   2.397       .  S
O1211      C1212   1.274       .  A
C1212      C1323   1.449       .  S
O1213     Zr1222   2.411       .  S
O1213      C1215   1.284       .  A
O1214     Zr1226   2.387       .  S
O1214      C1215   1.276       .  A
C1215      C1418   1.460       .  S
O1216     Zr1219   2.446       .  S
O1216      C1218   1.285       .  A
O1217     Zr1225   2.383       .  S
O1217      C1218   1.277       .  A
C1218      C1376   1.476       .  S
Zr1219     O1220   2.429       .  S
Zr1219     O1221   2.434       .  S
Zr1219     O1227   2.356       .  S
Zr1219     O1228   2.343       .  S
Zr1219     O1231   2.346       .  S
Zr1219     O1229   2.373       .  S
O1220      H1240   0.990       .  S
O1220      H1245   0.990       .  S
O1221      H1241   0.990       .  S
Zr1222     O1223   2.442       .  S
Zr1222     O1224   2.434       .  S
Zr1222     O1228   2.399       .  S
Zr1222     O1227   2.393       .  S
Zr1222     O1232   2.337       .  S
Zr1222     O1230   2.363       .  S
O1223      H1239   0.990       .  S
O1224      H1238   0.990       .  S
O1224      H1248   0.990       .  S
Zr1225     O1228   2.387       .  S
Zr1225     O1230   2.411       .  S
Zr1225     O1231   2.391       .  S
Zr1226     O1227   2.382       .  S
Zr1226     O1229   2.375       .  S
Zr1226     O1232   2.371       .  S
O1227      H1235   0.965       .  S
O1230      H1234   0.960       .  S
O1231      H1236   0.964       .  S
C1249      C1250   1.382       .  A
C1249      C1254   1.388       .  A
C1249      H1256   1.083       .  S
C1250      C1251   1.402       .  A
C1251      C1252   1.377       .  A
C1251      N1258   1.427       .  S
C1252      C1253   1.394       .  A
C1252      H1257   1.080       .  S
C1253      C1254   1.423       .  A
C1254      N1255   1.433       .  S
N1255      O1259   1.261       .  A
N1255      O1260   1.260       .  A
N1258      O1262   1.263       .  A
N1258      O1261   1.261       .  A
C1263      C1264   1.407       .  A
C1263      C1268   1.400       .  A
C1263      H1270   1.082       .  S
C1264      C1265   1.438       .  A
C1265      C1266   1.385       .  A
C1265      N1272   1.432       .  S
C1266      C1267   1.388       .  A
C1266      H1271   1.085       .  S
C1267      C1268   1.406       .  A
C1268      N1269   1.439       .  S
N1269      O1273   1.261       .  A
N1269      O1274   1.261       .  A
N1272      O1276   1.262       .  A
N1272      O1275   1.263       .  A
C1277      C1278   1.409       .  A
C1277      C1282   1.369       .  A
C1277      H1284   1.077       .  S
C1278      C1279   1.419       .  A
C1279      C1280   1.395       .  A
C1279      N1286   1.427       .  S
C1280      C1281   1.395       .  A
C1280      H1285   1.078       .  S
C1281      C1282   1.392       .  A
C1282      N1283   1.424       .  S
N1283      O1287   1.262       .  A
N1283      O1288   1.262       .  A
N1286      O1290   1.262       .  A
N1286      O1289   1.262       .  A
C1291      C1292   1.412       .  A
C1291      C1296   1.394       .  A
C1291      H1298   1.078       .  S
C1292      C1293   1.427       .  A
C1293      C1294   1.385       .  A
C1293      N1300   1.428       .  S
C1294      C1295   1.392       .  A
C1294      H1299   1.085       .  S
C1295      C1296   1.407       .  A
C1296      N1297   1.442       .  S
N1297      O1301   1.263       .  A
N1297      O1302   1.263       .  A
N1300      O1304   1.262       .  A
N1300      O1303   1.263       .  A
C1305      C1306   1.419       .  A
C1305      C1310   1.376       .  A
C1305      H1312   1.077       .  S
C1306      C1307   1.407       .  A
C1307      C1308   1.390       .  A
C1307      N1314   1.432       .  S
C1308      C1309   1.396       .  A
C1308      H1313   1.067       .  S
C1309      C1310   1.391       .  A
C1310      N1311   1.430       .  S
N1311      O1315   1.262       .  A
N1311      O1316   1.262       .  A
N1314      O1318   1.261       .  A
N1314      O1317   1.261       .  A
C1319      C1320   1.420       .  A
C1319      C1324   1.368       .  A
C1319      H1326   1.076       .  S
C1320      C1321   1.413       .  A
C1321      C1322   1.398       .  A
C1321      N1328   1.431       .  S
C1322      C1323   1.406       .  A
C1322      H1327   1.077       .  S
C1323      C1324   1.386       .  A
C1324      N1325   1.432       .  S
N1325      O1329   1.262       .  A
N1325      O1330   1.261       .  A
N1328      O1332   1.260       .  A
N1328      O1331   1.262       .  A
C1333      C1334   1.412       .  A
C1333      C1338   1.383       .  A
C1333      H1340   1.075       .  S
C1334      C1335   1.420       .  A
C1335      C1336   1.391       .  A
C1335      N1342   1.430       .  S
C1336      C1337   1.398       .  A
C1336      H1341   1.081       .  S
C1337      C1338   1.398       .  A
C1338      N1339   1.430       .  S
N1339      O1343   1.262       .  A
N1339      O1344   1.262       .  A
N1342      O1346   1.261       .  A
N1342      O1345   1.262       .  A
C1347      C1348   1.407       .  A
C1347      C1352   1.379       .  A
C1347      H1354   1.085       .  S
C1348      C1349   1.388       .  A
C1349      C1350   1.386       .  A
C1349      N1356   1.437       .  S
C1350      C1351   1.410       .  A
C1350      H1355   1.078       .  S
C1351      C1352   1.403       .  A
C1352      N1353   1.428       .  S
N1353      O1357   1.261       .  A
N1353      O1358   1.262       .  A
N1356      O1360   1.263       .  A
N1356      O1359   1.263       .  A
C1361      C1362   1.406       .  A
C1361      C1366   1.392       .  A
C1361      H1368   1.084       .  S
C1362      C1363   1.412       .  A
C1363      C1364   1.381       .  A
C1363      N1370   1.427       .  S
C1364      C1365   1.393       .  A
C1364      H1369   1.082       .  S
C1365      C1366   1.411       .  A
C1366      N1367   1.434       .  S
N1367      O1371   1.262       .  A
N1367      O1372   1.262       .  A
N1370      O1374   1.262       .  A
N1370      O1373   1.262       .  A
C1375      C1376   1.391       .  A
C1375      C1380   1.394       .  A
C1375      H1382   1.084       .  S
C1376      C1377   1.410       .  A
C1377      C1378   1.402       .  A
C1377      N1384   1.442       .  S
C1378      C1379   1.409       .  A
C1378      H1383   1.082       .  S
C1379      C1380   1.435       .  A
C1380      N1381   1.429       .  S
N1381      O1385   1.263       .  A
N1381      O1386   1.262       .  A
N1384      O1388   1.262       .  A
N1384      O1387   1.262       .  A
C1389      C1390   1.397       .  A
C1389      C1394   1.399       .  A
C1389      H1396   1.081       .  S
C1390      C1391   1.400       .  A
C1391      C1392   1.393       .  A
C1391      N1398   1.442       .  S
C1392      C1393   1.402       .  A
C1392      H1397   1.075       .  S
C1393      C1394   1.416       .  A
C1394      N1395   1.440       .  S
N1395      O1399   1.262       .  A
N1395      O1400   1.263       .  A
N1398      O1402   1.263       .  A
N1398      O1401   1.261       .  A
C1403      C1404   1.399       .  A
C1403      C1408   1.404       .  A
C1403      H1410   1.074       .  S
C1404      C1405   1.397       .  A
C1405      C1406   1.383       .  A
C1405      N1412   1.431       .  S
C1406      C1407   1.418       .  A
C1406      H1411   1.075       .  S
C1407      C1408   1.415       .  A
C1408      N1409   1.429       .  S
N1409      O1413   1.260       .  A
N1409      O1414   1.262       .  A
N1412      O1416   1.261       .  A
N1412      O1415   1.260       .  A
C1417      C1418   1.400       .  A
C1417      C1422   1.388       .  A
C1417      H1424   1.084       .  S
C1418      C1419   1.403       .  A
C1419      C1420   1.380       .  A
C1419      N1426   1.425       .  S
C1420      C1421   1.404       .  A
C1420      H1425   1.077       .  S
C1421      C1422   1.422       .  A
C1422      N1423   1.429       .  S
N1423      O1427   1.262       .  A
N1423      O1428   1.262       .  A
N1426      O1430   1.262       .  A
N1426      O1429   1.262       .  A
C1431      C1432   1.415       .  A
C1431      C1436   1.391       .  A
C1431      H1438   1.077       .  S
C1432      C1433   1.421       .  A
C1433      C1434   1.385       .  A
C1433      N1440   1.431       .  S
C1434      C1435   1.399       .  A
C1434      H1439   1.081       .  S
C1435      C1436   1.397       .  A
C1436      N1437   1.429       .  S
N1437      O1441   1.261       .  A
N1437      O1442   1.262       .  A
N1440      O1444   1.262       .  A
N1440      O1443   1.263       .  A
C1445      C1446   1.418       .  A
C1445      C1450   1.398       .  A
C1445      H1452   1.074       .  S
C1446      C1447   1.420       .  A
C1447      C1448   1.392       .  A
C1447      N1454   1.433       .  S
C1448      C1449   1.399       .  A
C1448      H1453   1.076       .  S
C1449      C1450   1.400       .  A
C1450      N1451   1.431       .  S
N1451      O1455   1.261       .  A
N1451      O1456   1.262       .  A
N1454      O1458   1.262       .  A
N1454      O1457   1.260       .  A
C1459      C1460   1.419       .  A
C1459      C1464   1.392       .  A
C1459      H1466   1.080       .  S
C1460      C1461   1.431       .  A
C1461      C1462   1.395       .  A
C1461      N1468   1.428       .  S
C1462      C1463   1.396       .  A
C1462      H1467   1.085       .  S
C1463      C1464   1.391       .  A
C1464      N1465   1.429       .  S
N1465      O1469   1.262       .  A
N1465      O1470   1.261   1_455  A
N1468      O1472   1.262       .  A
N1468      O1471   1.262       .  A
