geometry optimzed in LAMMPS
_audit_creation_date              2020-11-30 
_audit_creation_method            'lammps2cif' 
_symmetry_space_group_name_H-M    'P1' 
_symmetry_Int_Tables_number       1 
_symmetry_cell_setting            triclinic 
loop_ 
_symmetry_equiv_pos_as_xyz 
  x,y,z 
_cell_length_a                    22.10235744882689 
_cell_length_b                    21.67455931992114 
_cell_length_c                    21.430800378451433 
_cell_angle_alpha                 87.42158277336432 
_cell_angle_beta                  90.03894272256578 
_cell_angle_gamma                 85.79065464180732 
loop_ 
_atom_site_label 
_atom_site_type_symbol 
_atom_site_fract_x 
_atom_site_fract_y 
_atom_site_fract_z 
_atom_site_charge 
O1          O  0.96917271  0.20364088  0.59003693    -0.72690
O2          O  0.03144567  0.19836537  0.42099211    -0.73670
O3          O  0.08607408  0.21479023  0.53927959    -0.62290
O4          O  0.91285817  0.19712638  0.47009848    -0.70700
O5          O  0.90297259  0.29969286  0.46016651    -0.70250
O6          O  0.06644718  0.31584080  0.52546260    -0.61500
O7          O  0.01868265  0.30003844  0.40358746    -0.74010
O8          O  0.95112155  0.30587383  0.58262747    -0.72790
Cu9        Cu  0.00049356  0.19994144  0.50560482     1.04560
Cu10       Cu  0.98445867  0.30897372  0.49277985     1.04330
C11         C  0.95000054  0.25382198  0.61369112     0.93510
C12         C  0.03400205  0.24574994  0.38440766     0.92650
C13         C  0.10258996  0.27020851  0.54347234     0.84800
C14         C  0.88185628  0.24763573  0.45273283     0.91070
C15         C  0.83977917  0.15357018  0.83837071    -0.02230
O16         O  0.59141623  0.01288712  0.81455585    -0.72690
O17         O  0.42517721  0.97461750  0.80561983    -0.73670
O18         O  0.53403320  0.89939735  0.80206254    -0.62290
O19         O  0.47914579  0.08780910  0.80305108    -0.70700
O20         O  0.47922253  0.08276441  0.70040636    -0.70250
O21         O  0.54848277  0.91777772  0.70123091    -0.61500
O22         O  0.42746143  0.96908573  0.70266264    -0.74010
O23         O  0.59913102  0.03264549  0.71286469    -0.72790
Cu24       Cu  0.50780952  0.99339276  0.81027659     1.04560
Cu25       Cu  0.51404523  0.00061318  0.70074128     1.04330
C26         C  0.62066516  0.03379780  0.76857187     0.93510
C27         C  0.39929558  0.96422907  0.75510943     0.92650
C28         C  0.54728661  0.87984037  0.74744102     0.84800
C29         C  0.46900729  0.11354731  0.74818135     0.91070
O30         O  0.41354494  0.03965801  0.20162121    -0.72690
O31         O  0.57961101  0.97694463  0.18555114    -0.73670
O32         O  0.46786928  0.91950042  0.20072993    -0.62290
O33         O  0.52500056  0.09678807  0.20007210    -0.70700
O34         O  0.52546278  0.08521244  0.30346633    -0.70250
O35         O  0.48062884  0.91566787  0.30344962    -0.61500
O36         O  0.59235755  0.96846641  0.28848787    -0.74010
O37         O  0.41206646  0.02922042  0.30496199    -0.72790
Cu38       Cu  0.49635212  0.00873210  0.19335801     1.04560
Cu39       Cu  0.50324429  0.99983261  0.30384407     1.04330
C40         C  0.38446267  0.04087203  0.25242382     0.93510
C41         C  0.61265649  0.96186258  0.23264022     0.92650
C42         C  0.46494380  0.89061758  0.25445416     0.84800
C43         C  0.53373849  0.11800492  0.25421762     0.91070
C44         C  0.65006617  0.33587885  0.33580123    -0.02230
O45         O  0.72507583  0.53898951  0.89912752    -0.72690
O46         O  0.69269272  0.47763958  0.06684459    -0.73670
O47         O  0.70348344  0.59661692  0.01305745    -0.62290
O48         O  0.72170072  0.41948197  0.95380606    -0.70700
O49         O  0.81952803  0.41795791  0.97611569    -0.70250
O50         O  0.80296341  0.58629180  0.03047335    -0.61500
O51         O  0.79025191  0.46942373  0.09254691    -0.74010
O52         O  0.82483103  0.53446421  0.91362196    -0.72790
Cu53       Cu  0.70733116  0.50853627  0.98241011     1.04560
Cu54       Cu  0.81291016  0.50211493  0.00403089     1.04330
C55         C  0.77799352  0.54562205  0.87841487     0.93510
C56         C  0.73452531  0.46194577  0.10613039     0.92650
C57         C  0.75238192  0.61777740  0.03250745     0.84800
C58         C  0.77495189  0.39123350  0.95562879     0.91070
C59         C  0.66511914  0.65452443  0.65948035    -0.02230
C60         C  0.83769227  0.82713378  0.15442057    -0.02230
O61         O  0.01437392  0.82357904  0.58965698    -0.72690
O62         O  0.96512225  0.80945741  0.41948105    -0.73670
O63         O  0.89831564  0.81073119  0.53287488    -0.62290
O64         O  0.08001041  0.80786552  0.47545099    -0.70700
O65         O  0.07617327  0.70691804  0.48492548    -0.70250
O66         O  0.91830632  0.71034170  0.55164616    -0.61500
O67         O  0.96201304  0.70745190  0.42842997    -0.74010
O68         O  0.03275082  0.72199560  0.60492568    -0.72790
Cu69       Cu  0.98907919  0.81685191  0.50428695     1.04560
Cu70       Cu  0.99750472  0.70830219  0.51816113     1.04330
C71         C  0.03589239  0.77746436  0.62285053     0.93510
C72         C  0.95271263  0.75913187  0.39674239     0.92650
C73         C  0.88058672  0.75699750  0.54949111     0.84800
C74         C  0.10544311  0.75283976  0.47021189     0.91070
C75         C  0.32923351  0.34369864  0.66311488    -0.02230
C76         C  0.18427712  0.83855510  0.83409856    -0.02230
C77         C  0.33082952  0.67956650  0.33995782    -0.02230
C78         C  0.15472836  0.15218602  0.15714860    -0.02230
O79         O  0.30411134  0.45926632  0.92541597    -0.72690
O80         O  0.31502957  0.51609052  0.09186193    -0.73670
O81         O  0.28637307  0.40230264  0.04345734    -0.62290
O82         O  0.32373453  0.57426960  0.97208529    -0.70700
O83         O  0.22447664  0.59898476  0.97540480    -0.70250
O84         O  0.18928819  0.43420869  0.03768259    -0.61500
O85         O  0.21744734  0.54595807  0.09502799    -0.74010
O86         O  0.20638275  0.48864784  0.91528754    -0.72790
Cu87       Cu  0.31058324  0.48671363  0.00875504     1.04560
Cu88       Cu  0.20574222  0.51749212  0.00620963     1.04330
C89         C  0.25669485  0.46691758  0.89191562     0.93510
C90         C  0.27082665  0.54320827  0.11937545     0.92650
C91         C  0.23027917  0.39145582  0.05032631     0.84800
C92         C  0.27760264  0.61288341  0.96139746     0.91070
C93         C  0.00849203  0.98127262  0.00381579    -0.02230
C94         C  0.49800157  0.50682791  0.50778262    -0.02230
C95         C  0.17889740  0.20945810  0.11880731     0.00100
C96         C  0.13477761  0.25834444  0.10242426    -0.11770
C97         C  0.14983541  0.31703891  0.08111235     0.02340
C98         C  0.21140221  0.32940557  0.07238814     0.00020
C99         C  0.25565367  0.28098944  0.08405607    -0.11710
C100        C  0.24103261  0.22214733  0.10680347     0.02220
H101        H  0.08714293  0.25108807  0.10961297     0.15200
H102        H  0.30288683  0.28939779  0.07590495     0.15200
C103        C  0.29320913  0.17869273  0.11478407     0.36860
C104        C  0.10005921  0.36350044  0.07099342     0.36760
N105        N  0.33791103  0.14741839  0.11911173    -0.43490
N106        N  0.05986499  0.40041588  0.06339523    -0.43480
C107        C  0.11696355  0.11026752  0.11271308     0.00100
C108        C  0.11052807  0.04790645  0.13242404    -0.11770
C109        C  0.07912564  0.00581156  0.09901913     0.02340
C110        C  0.04683989  0.02502779  0.04313689     0.00020
C111        C  0.05821927  0.08474037  0.01907064    -0.11710
C112        C  0.09489175  0.12494270  0.04999519     0.02220
H113        H  0.13369783  0.02962918  0.17444551     0.15200
H114        H  0.04154697  0.09917934  0.97291100     0.15200
C115        C  0.11454216  0.17445118  0.00953698     0.36860
C116        C  0.07918274  0.94462371  0.12818325     0.36760
N117        N  0.12966576  0.21243378  0.97440550    -0.43490
N118        N  0.08052667  0.89801909  0.15683953    -0.43480
C119        C  0.30908671  0.64575068  0.28217041     0.00100
C120        C  0.35612447  0.61763061  0.24658806    -0.11770
C121        C  0.34491267  0.58152610  0.19660449     0.02340
C122        C  0.28435762  0.57506440  0.17706874     0.00020
C123        C  0.23700742  0.60550382  0.20932251    -0.11710
C124        C  0.24801694  0.64106624  0.26061012     0.02220
H125        H  0.40294038  0.62149553  0.26033661     0.15200
H126        H  0.19072878  0.60292936  0.19322222     0.15200
C127        C  0.19482536  0.67513999  0.28390488     0.36860
C128        C  0.39775893  0.55186178  0.16749665     0.36760
N129        N  0.15084924  0.70222202  0.29984118    -0.43490
N130        N  0.44042968  0.52820085  0.14485629    -0.43480
C131        C  0.45238196  0.55455870  0.46784577     0.00100
C132        C  0.41420928  0.53000230  0.42347305    -0.11770
C133        C  0.37358477  0.56610038  0.38434447     0.02340
C134        C  0.36969478  0.63218160  0.38595049     0.00020
C135        C  0.39725503  0.65552617  0.43846266    -0.11710
C136        C  0.43788517  0.61917023  0.47826470     0.02220
H137        H  0.41493760  0.48000901  0.42086821     0.15200
H138        H  0.38832873  0.70431583  0.44713602     0.15200
C139        C  0.45741992  0.65123319  0.53138230     0.36860
C140        C  0.33192829  0.53119108  0.35065149     0.36760
N141        N  0.47100023  0.67957972  0.57302441    -0.43490
N142        N  0.29875335  0.50188467  0.32509078    -0.43480
C143        C  0.27967849  0.67034496  0.92313682     0.00100
C144        C  0.25283227  0.66674991  0.86484680    -0.11770
C145        C  0.21815692  0.71672630  0.83673905     0.02340
C146        C  0.21577591  0.77657917  0.86353637     0.00020
C147        C  0.25192510  0.78102662  0.91789955    -0.11710
C148        C  0.28030881  0.72835266  0.94949668     0.02220
H149        H  0.25212283  0.62145817  0.84496695     0.15200
H150        H  0.25446463  0.82565393  0.93827657     0.15200
C151        C  0.30653945  0.73407207  0.01045491     0.36860
C152        C  0.18713410  0.70060439  0.78116299     0.36760
N153        N  0.32745953  0.73855902  0.05942194    -0.43490
N154        N  0.16451705  0.68357547  0.73697119    -0.43480
C155        C  0.05883397  0.94226818  0.96588380     0.00100
C156        C  0.08460863  0.97199688  0.91324931    -0.11770
C157        C  0.11940509  0.93911764  0.86886225     0.02340
C158        C  0.14433498  0.87732603  0.88259234     0.00020
C159        C  0.12652454  0.85048648  0.94033406    -0.11710
C160        C  0.08343909  0.88004478  0.97990962     0.02220
H161        H  0.07112855  0.02027934  0.90210428     0.15200
H162        H  0.14218766  0.80322204  0.95321486     0.15200
C163        C  0.06659151  0.84194862  0.03291459     0.36860
C164        C  0.12707277  0.97089574  0.80898282     0.36760
N165        N  0.05408362  0.80791620  0.07320638    -0.43490
N166        N  0.13261053  0.99741691  0.76148193    -0.43480
C167        C  0.26527583  0.45019181  0.82606629     0.00100
C168        C  0.32409822  0.45436543  0.80262011    -0.11770
C169        C  0.34651451  0.41808901  0.75462603     0.02340
C170        C  0.30670340  0.38488916  0.71866045     0.00020
C171        C  0.24536565  0.38508598  0.74076552    -0.11710
C172        C  0.22481846  0.41696764  0.79329761     0.02220
H173        H  0.35594069  0.47984598  0.82807848     0.15200
H174        H  0.21387974  0.35510077  0.72157614     0.15200
C175        C  0.16424483  0.40938394  0.81606466     0.36860
C176        C  0.41165604  0.40805308  0.75471526     0.36760
N177        N  0.11568765  0.40316202  0.83426381    -0.43490
N178        N  0.46391359  0.40173783  0.76014822    -0.43480
C179        C  0.37370164  0.38182859  0.61799067     0.00100
C180        C  0.43778925  0.37736936  0.62666638    -0.11770
C181        C  0.47852601  0.41112894  0.59002024     0.02340
C182        C  0.45683649  0.46111876  0.54801631     0.00020
C183        C  0.39202357  0.46851739  0.54531810    -0.11710
C184        C  0.35503438  0.42211475  0.56665423     0.02220
H185        H  0.45815343  0.34556133  0.66209988     0.15200
H186        H  0.36748708  0.50756907  0.52199377     0.15200
C187        C  0.31559508  0.40292090  0.51859808     0.36860
C188        C  0.54112518  0.39247534  0.60263018     0.36760
N189        N  0.28557367  0.38790092  0.47849638    -0.43490
N190        N  0.58854446  0.37078419  0.61784809    -0.43480
C191        C  0.16774249  0.73733123  0.44586126     0.00100
C192        C  0.20591186  0.78330507  0.42634068    -0.11770
C193        C  0.26183079  0.76773878  0.39692653     0.02340
C194        C  0.27760130  0.70504050  0.38128241     0.00020
C195        C  0.24282997  0.65969278  0.40882566    -0.11710
C196        C  0.18949124  0.67416948  0.44010979     0.02220
H197        H  0.19243810  0.83135165  0.43458427     0.15200
H198        H  0.25499097  0.61134170  0.40171446     0.15200
C199        C  0.15728675  0.62108486  0.46091013     0.36860
C200        C  0.30265742  0.81645798  0.38973751     0.36760
N201        N  0.13188574  0.57817672  0.47646832    -0.43490
N202        N  0.33489849  0.85618100  0.38561597    -0.43480
C203        C  0.07074927  0.79245209  0.67762753     0.00100
C204        C  0.05380812  0.77449747  0.73811850    -0.11770
C205        C  0.08675161  0.79178370  0.79000651     0.02340
C206        C  0.13849490  0.82752629  0.78106015     0.00020
C207        C  0.14687153  0.85343040  0.72055689    -0.11710
C208        C  0.11676018  0.83367274  0.66933377     0.02220
H209        H  0.01588696  0.74585184  0.74474412     0.15200
H210        H  0.17879451  0.88806319  0.71145984     0.15200
C211        C  0.13614776  0.85547454  0.60828615     0.36860
C212        C  0.06925156  0.76644395  0.85015461     0.36760
N213        N  0.15302855  0.87346705  0.56021012    -0.43490
N214        N  0.05359970  0.74476911  0.89723071    -0.43480
C215        C  0.87325003  0.80899768  0.21687798     0.00100
C216        C  0.85418789  0.83683865  0.27260196    -0.11770
C217        C  0.87337023  0.81292572  0.33065147     0.02340
C218        C  0.92170931  0.76694966  0.33591522     0.00020
C219        C  0.94862012  0.74483062  0.28118294    -0.11710
C220        C  0.92463584  0.76489716  0.22183690     0.02220
H221        H  0.82239212  0.87718018  0.27236820     0.15200
H222        H  0.98833778  0.71236951  0.28470265     0.15200
C223        C  0.95095823  0.73577072  0.16810618     0.36860
C224        C  0.84297116  0.83838739  0.38468139     0.36760
N225        N  0.97271176  0.71043145  0.12638645    -0.43490
N226        N  0.81793397  0.85919008  0.42715666    -0.43480
C227        C  0.88347993  0.86324615  0.11282890     0.00100
C228        C  0.90508052  0.91644651  0.13834364    -0.11770
C229        C  0.94234210  0.95615495  0.10534555     0.02340
C230        C  0.96581239  0.94102235  0.04525401     0.00020
C231        C  0.94216259  0.88938744  0.01869759    -0.11710
C232        C  0.90623568  0.84846630  0.05245001     0.02220
H233        H  0.88878736  0.92980925  0.18388574     0.15200
H234        H  0.95600668  0.87782181  0.97194187     0.15200
C235        C  0.90060182  0.78983851  0.02453983     0.36860
C236        C  0.94875607  0.01462619  0.13345727     0.36760
N237        N  0.89790753  0.74307374  0.00098224    -0.43490
N238        N  0.95162378  0.06189625  0.15593317    -0.43480
C239        C  0.81729883  0.74165627  0.56451370     0.00100
C240        C  0.80543198  0.67972478  0.55587361    -0.11770
C241        C  0.75876743  0.65179798  0.58663139     0.02340
C242        C  0.71389335  0.68768116  0.61925445     0.00020
C243        C  0.72221267  0.75251908  0.62168451    -0.11710
C244        C  0.77396502  0.77893930  0.59617691     0.02220
H245        H  0.83705706  0.65025171  0.52965338     0.15200
H246        H  0.69208678  0.78239431  0.64855470     0.15200
C247        C  0.78361797  0.84266076  0.60705879     0.36860
C248        C  0.76219332  0.58505479  0.58708763     0.36760
N249        N  0.79140003  0.89377425  0.61587251    -0.43490
N250        N  0.76920550  0.53166266  0.58756497    -0.43480
C251        C  0.62271934  0.61600104  0.61793184     0.00100
C252        C  0.57447211  0.58692935  0.64767085    -0.11770
C253        C  0.53287447  0.55310851  0.61543683     0.02340
C254        C  0.53855297  0.54537137  0.54981031     0.00020
C255        C  0.58108610  0.58135711  0.51899099    -0.11710
C256        C  0.62010282  0.61790499  0.55077256     0.02220
H257        H  0.56837511  0.59183991  0.69747117     0.15200
H258        H  0.58199033  0.58278526  0.46830606     0.15200
C259        C  0.64852357  0.66270276  0.51085515     0.36860
C260        C  0.47965899  0.53783015  0.64992427     0.36760
N261        N  0.66983192  0.69859504  0.47755239    -0.43490
N262        N  0.43640319  0.52810144  0.67795581    -0.43480
C263        C  0.81118016  0.77021240  0.12441374     0.00100
C264        C  0.77883852  0.78139694  0.06702575    -0.11770
C265        C  0.75258015  0.73370657  0.03668868     0.02340
C266        C  0.75361048  0.67468067  0.06611145     0.00020
C267        C  0.77596428  0.66552723  0.12665150    -0.11710
C268        C  0.80421471  0.71125672  0.15630241     0.02220
H269        H  0.77701456  0.82716927  0.04419861     0.15200
H270        H  0.77426982  0.62002511  0.14994895     0.15200
C271        C  0.81771628  0.69515767  0.22127272     0.36860
C272        C  0.72744240  0.74541567  0.97479339     0.36760
N273        N  0.82596479  0.68001350  0.27326143    -0.43490
N274        N  0.70697982  0.75477162  0.92525154    -0.43480
C275        C  0.78019576  0.56510034  0.81216658     0.00100
C276        C  0.75023808  0.52735812  0.77305499    -0.11770
C277        C  0.71050528  0.55240368  0.72598008     0.02340
C278        C  0.70609622  0.61758614  0.71093805     0.00020
C279        C  0.74569178  0.65321243  0.74508958    -0.11710
C280        C  0.78113688  0.62801051  0.79541962     0.02220
H281        H  0.74936274  0.47854664  0.78699543     0.15200
H282        H  0.74511157  0.70277105  0.73596746     0.15200
C283        C  0.81265046  0.66871400  0.83354652     0.36860
C284        C  0.67043747  0.50878960  0.70421316     0.36760
N285        N  0.83803140  0.70124442  0.86408537    -0.43490
N286        N  0.63878415  0.47044677  0.69322449    -0.43480
C287        C  0.71508885  0.43137909  0.16504620     0.00100
C288        C  0.73185852  0.45114577  0.22354987    -0.11770
C289        C  0.70769129  0.42529578  0.27897303     0.02340
C290        C  0.66709323  0.37689950  0.27645114     0.00020
C291        C  0.64543074  0.36445417  0.21659744    -0.11710
C292        C  0.67100682  0.38778443  0.16225939     0.02220
H293        H  0.76323911  0.48716156  0.22596456     0.15200
H294        H  0.60865309  0.33503099  0.21078662     0.15200
C295        C  0.65203325  0.36404116  0.10380919     0.36860
C296        C  0.72796798  0.44727384  0.33746420     0.36760
N297        N  0.63699262  0.34466233  0.05726682    -0.43490
N298        N  0.74472164  0.46547348  0.38390625    -0.43480
C299        C  0.61303009  0.38232861  0.37916055     0.00100
C300        C  0.63292117  0.39425246  0.43947042    -0.11770
C301        C  0.60050567  0.43553897  0.47891208     0.02340
C302        C  0.54300969  0.46698928  0.46140600     0.00020
C303        C  0.53187740  0.46445092  0.39607261    -0.11710
C304        C  0.56186417  0.42107091  0.35736880     0.02220
H305        H  0.67683608  0.37463286  0.45542925     0.15200
H306        H  0.50210257  0.49808563  0.37127512     0.15200
C307        C  0.53691130  0.41773854  0.29534307     0.36860
C308        C  0.63657664  0.45304124  0.52976638     0.36760
N309        N  0.51500128  0.41607950  0.24643371    -0.43490
N310        N  0.66914074  0.46549331  0.56852647    -0.43480
C311        C  0.36923388  0.73157766  0.31009768     0.00100
C312        C  0.43082691  0.73446980  0.32631648    -0.11770
C313        C  0.46201710  0.78634328  0.31080779     0.02340
C314        C  0.43902437  0.82996305  0.26405389     0.00020
C315        C  0.38209343  0.82231920  0.23849377    -0.11710
C316        C  0.34586658  0.77639255  0.26304572     0.02220
H317        H  0.45536217  0.69866084  0.35442617     0.15200
H318        H  0.36281019  0.85692109  0.20448884     0.15200
C319        C  0.28392493  0.78103339  0.24127002     0.36860
C320        C  0.51326705  0.79639991  0.35013765     0.36760
N321        N  0.23493969  0.78865476  0.22189815    -0.43490
N322        N  0.55327122  0.80415810  0.38309950    -0.43480
C323        C  0.67264416  0.93204328  0.21913186     0.00100
C324        C  0.71041320  0.96186291  0.17642337    -0.11770
C325        C  0.76021362  0.92958184  0.14851043     0.02340
C326        C  0.77798789  0.86762586  0.16988685     0.00020
C327        C  0.73652812  0.83842539  0.20969185    -0.11710
C328        C  0.68346363  0.86824211  0.23022192     0.02220
H329        H  0.69731706  0.00893438  0.16012470     0.15200
H330        H  0.74462576  0.79052899  0.22451879     0.15200
C331        C  0.63623512  0.82881974  0.24767091     0.36860
C332        C  0.78440176  0.95887477  0.09309082     0.36760
N333        N  0.60030801  0.79323308  0.25535585    -0.43490
N334        N  0.80234265  0.98294139  0.04820752    -0.43480
C335        C  0.20952603  0.11260201  0.18992858     0.00100
C336        C  0.23161369  0.12864519  0.24942866    -0.11770
C337        C  0.28596053  0.10155190  0.27562349     0.02340
C338        C  0.31836976  0.05440555  0.24483558     0.00020
C339        C  0.29307461  0.03178345  0.19102249    -0.11710
C340        C  0.24332438  0.06315504  0.16062263     0.02220
H341        H  0.20984252  0.16551948  0.27497705     0.15380
H342        H  0.31837602  0.99522246  0.16687304     0.15200
C343        C  0.23622073  0.04986577  0.09546170     0.36860
C344        C  0.31029920  0.12691902  0.33069800     0.36760
N345        N  0.23145223  0.03901305  0.04335662    -0.43490
N346        N  0.32996925  0.14739108  0.37467200    -0.43480
C347        C  0.61404476  0.27991612  0.31549797     0.00100
C348        C  0.64374115  0.23951145  0.27264535    -0.11770
C349        C  0.61497411  0.19221565  0.24513741     0.02340
C350        C  0.55645618  0.17926087  0.26389328     0.00020
C351        C  0.52720134  0.21598609  0.30879603    -0.11710
C352        C  0.55474935  0.26527582  0.33502815     0.02220
H353        H  0.68935438  0.24726614  0.25738902     0.15200
H354        H  0.48333018  0.20366512  0.32614297     0.15200
C355        C  0.52187585  0.29415282  0.38544540     0.36860
C356        C  0.64756461  0.15649004  0.19904654     0.36760
N357        N  0.49441196  0.31578743  0.42604624    -0.43490
N358        N  0.67391422  0.12897285  0.16142678    -0.43480
C359        C  0.56101415  0.81415580  0.73224047     0.00100
C360        C  0.58654963  0.76985149  0.77572330    -0.11770
C361        C  0.61228129  0.71272629  0.75574761     0.02340
C362        C  0.62053154  0.70354375  0.69030866     0.00020
C363        C  0.58510572  0.74355536  0.64925620    -0.11710
C364        C  0.55373159  0.79657138  0.66973170     0.02220
H365        H  0.58659945  0.77972185  0.82487950     0.15200
H366        H  0.58468754  0.73536510  0.59978306     0.15200
C367        C  0.51597546  0.83280707  0.62426635     0.36860
C368        C  0.62305583  0.66409472  0.80342516     0.36760
N369        N  0.48585542  0.86147088  0.58765169    -0.43490
N370        N  0.63001705  0.62557008  0.84244108    -0.43480
C371        C  0.33823545  0.94208398  0.76259667     0.00100
C372        C  0.32686062  0.88629119  0.73728481    -0.11770
C373        C  0.27984410  0.85160809  0.75992937     0.02340
C374        C  0.24028424  0.87367689  0.80899976     0.00020
C375        C  0.25561314  0.92872656  0.83605288    -0.11710
C376        C  0.30062855  0.96434798  0.81113396     0.02220
H377        H  0.35760842  0.86756765  0.70217790     0.15200
H378        H  0.23311692  0.94497685  0.87754048     0.15200
C379        C  0.30886101  0.02321012  0.83808301     0.36860
C380        C  0.27551128  0.79421132  0.72944468     0.36760
N381        N  0.31527716  0.07039364  0.85947344    -0.43490
N382        N  0.27653838  0.74998249  0.70104676    -0.43480
C383        C  0.44201390  0.17750246  0.73464451     0.00100
C384        C  0.39867271  0.20428614  0.77429169    -0.11770
C385        C  0.36061862  0.25649617  0.75427804     0.02340
C386        C  0.36553962  0.28361081  0.69190189     0.00020
C387        C  0.40554431  0.25121908  0.65163322    -0.11710
C388        C  0.44747135  0.20454197  0.67365399     0.02220
H389        H  0.39187754  0.18195820  0.81984556     0.15200
H390        H  0.40718660  0.26566768  0.60258315     0.15200
C391        C  0.49596092  0.18552086  0.63169329     0.36860
C392        C  0.31322013  0.27333792  0.79775447     0.36760
N393        N  0.53486318  0.17064212  0.59820284    -0.43490
N394        N  0.27623190  0.28313755  0.83496901    -0.43480
C395        C  0.78768257  0.32863061  0.93108876     0.00100
C396        C  0.74732704  0.30663470  0.88876479    -0.11770
C397        C  0.76119795  0.25156666  0.85805923     0.02340
C398        C  0.81723336  0.21482334  0.87095936     0.00020
C399        C  0.85900522  0.24125447  0.90978313    -0.11710
C400        C  0.84364646  0.29404237  0.94273719     0.02220
H401        H  0.70537466  0.33411339  0.87752058     0.15200
H402        H  0.90363310  0.21847411  0.91774950     0.15200
C403        C  0.88619268  0.30975590  0.98979387     0.36860
C404        C  0.71733073  0.23872882  0.81128463     0.36760
N405        N  0.92013379  0.32165806  0.02782088    -0.43490
N406        N  0.68127919  0.23036020  0.77395638    -0.43480
C407        C  0.67758450  0.06197857  0.78419374     0.00100
C408        C  0.72849014  0.05677795  0.74565669    -0.11770
C409        C  0.78283040  0.08205007  0.76239340     0.02340
C410        C  0.78630032  0.11510800  0.81874060     0.00020
C411        C  0.73727690  0.11202719  0.86014259    -0.11710
C412        C  0.68251306  0.09064248  0.84192510     0.02220
H413        H  0.72605922  0.03230556  0.70277514     0.15200
H414        H  0.73887329  0.13328881  0.90466848     0.15200
C415        C  0.63057666  0.10482524  0.88129749     0.36860
C416        C  0.83357724  0.07113929  0.72095720     0.36760
N417        N  0.58899367  0.11715313  0.91234773    -0.43490
N418        N  0.87381895  0.06173843  0.68730674    -0.43480
C419        C  0.96129380  0.02091224  0.95870324     0.00100
C420        C  0.92215820  0.06724287  0.98472384    -0.11770
C421        C  0.87841349  0.10421449  0.94957656     0.02340
C422        C  0.87998947  0.10627545  0.88283627     0.00020
C423        C  0.91476471  0.05637502  0.85706141    -0.11710
C424        C  0.94983353  0.01137590  0.89418055     0.02220
H425        H  0.92387410  0.07393799  0.03396443     0.15200
H426        H  0.91315834  0.05077404  0.80744625     0.15200
C427        C  0.96610868  0.95361599  0.86524968     0.36860
C428        C  0.83010029  0.13424101  0.98515083     0.36760
N429        N  0.97807686  0.90749473  0.84130584    -0.43490
N430        N  0.79165460  0.15738664  0.01466324    -0.43480
C431        C  0.82336449  0.25004641  0.41828733     0.00100
C432        C  0.76849090  0.24138291  0.44917518    -0.11770
C433        C  0.71233532  0.26567146  0.42301004     0.02340
C434        C  0.71040607  0.30305452  0.36611662     0.00020
C435        C  0.76568938  0.30214714  0.33223494    -0.11710
C436        C  0.82082710  0.27782975  0.35778787     0.02220
H437        H  0.76957201  0.21790686  0.49490679     0.15200
H438        H  0.76731505  0.32007724  0.28451055     0.15200
C439        C  0.87506664  0.28465184  0.32120082     0.36860
C440        C  0.65812947  0.25224867  0.45686746     0.36760
N441        N  0.91777840  0.29087319  0.29106000    -0.43490
N442        N  0.61559025  0.24076978  0.48530132    -0.43480
C443        C  0.27210736  0.32371281  0.62589221     0.00100
C444        C  0.26269644  0.26023851  0.61679403    -0.11770
C445        C  0.20930654  0.24114960  0.58974563     0.02340
C446        C  0.16240682  0.28527773  0.57019621     0.00020
C447        C  0.17143896  0.34812422  0.57769216    -0.11710
C448        C  0.22382624  0.36758750  0.60498403     0.02220
H449        H  0.29599459  0.22370936  0.63172953     0.15200
H450        H  0.13628997  0.38347519  0.56336623     0.15200
C451        C  0.22442712  0.43371504  0.61294306     0.36860
C452        C  0.20399284  0.17572187  0.58350041     0.36760
N453        N  0.22450650  0.48650104  0.61910354    -0.43490
N454        N  0.19994656  0.12321529  0.57864050    -0.43480
C455        C  0.05391272  0.23316003  0.31982641     0.00100
C456        C  0.03755762  0.17756734  0.29636771    -0.11770
C457        C  0.06907826  0.14882755  0.24769625     0.02340
C458        C  0.11335212  0.18041204  0.21221676     0.00020
C459        C  0.12654447  0.23926702  0.23585704    -0.11710
C460        C  0.09809984  0.26496381  0.28827398     0.02220
H461        H  0.00383045  0.15234311  0.32169876     0.15200
H462        H  0.16416968  0.26358443  0.21754895     0.15200
C463        C  0.11933549  0.32082582  0.31209494     0.36860
C464        C  0.05970724  0.08399329  0.24703577     0.36760
N465        N  0.13650535  0.36547148  0.33130494    -0.43490
N466        N  0.04967944  0.03233495  0.25285516    -0.43480
C467        C  0.92278347  0.24711389  0.67583035     0.00100
C468        C  0.96001441  0.22351090  0.72563476    -0.11770
C469        C  0.93603433  0.19327521  0.77856641     0.02340
C470        C  0.87329687  0.18152202  0.78049837     0.00020
C471        C  0.83679406  0.20881509  0.73059673    -0.11710
C472        C  0.86031005  0.24180757  0.68004733     0.02220
H473        H  0.00864306  0.22697622  0.72212477     0.15200
H474        H  0.78912070  0.20243554  0.72900343     0.15200
C475        C  0.81946691  0.26673434  0.63099494     0.36860
C476        C  0.97785472  0.17658654  0.82914864     0.36760
N477        N  0.78637113  0.28741250  0.59238718    -0.43490
N478        N  0.01249991  0.16448869  0.86911767    -0.43480
loop_ 
_geom_bond_atom_site_label_1 
_geom_bond_atom_site_label_2 
_geom_bond_distance 
_geom_bond_site_symmetry_2 
_ccdc_geom_bond_type 
O1           Cu9   1.941   1_655  S
O1           C11   1.266       .  A
O2           Cu9   1.939       .  S
O2           C12   1.268       .  A
O3           Cu9   2.076       .  S
O3           C13   1.288       .  A
O4           Cu9   2.087   1_655  S
O4           C14   1.288       .  A
O5          Cu10   1.959       .  S
O5           C14   1.269       .  A
O6          Cu10   1.961   1_455  S
O6           C13   1.271       .  A
O7          Cu10   2.068   1_455  S
O7           C12   1.286       .  A
O8          Cu10   2.062       .  S
O8           C11   1.286       .  A
Cu9         Cu10   2.367   1_455  S
C11         C467   1.467       .  S
C12         C455   1.484       .  S
C13         C446   1.504       .  S
C14         C431   1.485       .  S
C15         C398   1.577       .  S
C15         C410   1.564       .  S
C15         C422   1.589       .  S
C15         C470   1.566       .  S
O16         Cu24   1.929   1_545  S
O16          C26   1.264       .  A
O17         Cu24   1.904       .  S
O17          C27   1.261       .  A
O18         Cu24   2.092       .  S
O18          C28   1.289       .  A
O19         Cu24   2.096   1_545  S
O19          C29   1.291       .  A
O20         Cu25   1.887       .  S
O20          C29   1.259       .  A
O21         Cu25   1.898   1_565  S
O21          C28   1.260       .  A
O22         Cu25   2.079   1_565  S
O22          C27   1.289       .  A
O23         Cu25   2.072       .  S
O23          C26   1.287       .  A
Cu24        Cu25   2.350   1_565  S
C26         C407   1.483       .  S
C27         C371   1.472       .  S
C28         C359   1.484       .  S
C29         C383   1.485       .  S
O30         Cu38   1.913       .  S
O30          C40   1.265       .  A
O31         Cu38   1.927   1_565  S
O31          C41   1.262       .  A
O32         Cu38   2.077   1_565  S
O32          C42   1.290       .  A
O33         Cu38   2.066       .  S
O33          C43   1.287       .  A
O34         Cu39   1.949   1_545  S
O34          C43   1.267       .  A
O35         Cu39   1.927       .  S
O35          C42   1.263       .  A
O36         Cu39   2.067       .  S
O36          C41   1.289       .  A
O37         Cu39   2.069   1_545  S
O37          C40   1.286       .  A
Cu38        Cu39   2.371   1_545  S
C40         C338   1.476       .  S
C41         C323   1.467       .  S
C42         C314   1.478       .  S
C43         C350   1.477       .  S
C44         C290   1.580       .  S
C44         C299   1.585       .  S
C44         C347   1.576       .  S
C44         C434   1.589       .  S
O45         Cu53   1.926       .  S
O45          C55   1.267       .  A
O46         Cu53   1.937   1_554  S
O46          C56   1.267       .  A
O47         Cu53   2.043   1_554  S
O47          C57   1.281       .  A
O48         Cu53   2.054       .  S
O48          C58   1.286       .  A
O49         Cu54   1.941   1_556  S
O49          C58   1.267       .  A
O50         Cu54   1.932       .  S
O50          C57   1.268       .  A
O51         Cu54   2.070       .  S
O51          C56   1.286       .  A
O52         Cu54   2.054   1_556  S
O52          C55   1.283       .  A
Cu53        Cu54   2.372   1_556  S
C55         C275   1.465       .  S
C56         C287   1.478       .  S
C57         C266   1.458       .  S
C58         C395   1.485       .  S
C59         C242   1.575       .  S
C59         C251   1.597       .  S
C59         C278   1.578       .  S
C59         C362   1.564       .  S
C60         C215   1.572       .  S
C60         C227   1.577       .  S
C60         C263   1.567       .  S
C60         C326   1.574       .  S
O61         Cu69   1.928   1_455  S
O61          C71   1.264       .  A
O62         Cu69   1.910       .  S
O62          C72   1.263       .  A
O63         Cu69   2.110       .  S
O63          C73   1.291       .  A
O64         Cu69   2.101   1_455  S
O64          C74   1.290       .  A
O65         Cu70   1.878   1_455  S
O65          C74   1.255       .  A
O66         Cu70   1.891       .  S
O66          C73   1.262       .  A
O67         Cu70   2.078       .  S
O67          C72   1.287       .  A
O68         Cu70   2.058   1_455  S
O68          C71   1.285       .  A
Cu69        Cu70   2.352       .  S
C71         C203   1.465       .  S
C72         C218   1.470       .  S
C73         C239   1.493       .  S
C74         C191   1.493       .  S
C75         C170   1.579       .  S
C75         C179   1.623       .  S
C75         C386   1.579       .  S
C75         C443   1.590       .  S
C76         C146   1.573       .  S
C76         C158   1.593       .  S
C76         C206   1.559       .  S
C76         C374   1.582       .  S
C77         C119   1.560       .  S
C77         C134   1.595       .  S
C77         C194   1.557       .  S
C77         C311   1.574       .  S
C78          C95   1.584       .  S
C78         C107   1.618       .  S
C78         C335   1.578       .  S
C78         C458   1.609       .  S
O79         Cu87   1.916   1_556  S
O79          C89   1.267       .  A
O80         Cu87   1.923       .  S
O80          C90   1.263       .  A
O81         Cu87   2.051       .  S
O81          C91   1.286       .  A
O82         Cu87   2.062   1_556  S
O82          C92   1.284       .  A
O83         Cu88   1.931   1_556  S
O83          C92   1.266       .  A
O84         Cu88   1.958       .  S
O84          C91   1.268       .  A
O85         Cu88   2.049       .  S
O85          C90   1.286       .  A
O86         Cu88   2.073   1_556  S
O86          C89   1.286       .  A
Cu87        Cu88   2.364       .  S
C89         C167   1.482       .  S
C90         C122   1.484       .  S
C91          C98   1.494       .  S
C92         C143   1.464       .  S
C93         C110   1.586   1_565  S
C93         C155   1.593   1_554  S
C93         C230   1.579   1_455  S
C93         C419   1.598   1_464  S
C94         C131   1.608       .  S
C94         C182   1.615       .  S
C94         C254   1.578       .  S
C94         C302   1.636       .  S
C95          C96   1.418       .  A
C95         C100   1.441       .  A
C96          C97   1.396       .  A
C96         H101   1.086       .  S
C97          C98   1.417       .  A
C97         C104   1.445       .  S
C98          C99   1.395       .  A
C99         C100   1.405       .  A
C99         H102   1.086       .  S
C100        C103   1.439       .  S
C103        N105   1.158       .  T
C104        N106   1.157       .  T
C107        C108   1.415       .  A
C107        C112   1.443       .  A
C108        C109   1.406       .  A
C108        H113   1.081       .  S
C109        C110   1.424       .  A
C109        C116   1.440   1_545  S
C110        C111   1.411       .  A
C111        C112   1.418       .  A
C111        H114   1.080   1_554  S
C112        C115   1.441       .  S
C115        N117   1.158   1_554  T
C116        N118   1.157       .  T
C119        C120   1.408       .  A
C119        C124   1.438       .  A
C120        C121   1.387       .  A
C120        H125   1.086       .  S
C121        C122   1.421       .  A
C121        C128   1.447       .  S
C122        C123   1.396       .  A
C123        C124   1.402       .  A
C123        H126   1.085       .  S
C124        C127   1.443       .  S
C127        N129   1.158       .  T
C128        N130   1.158       .  T
C131        C132   1.418       .  A
C131        C136   1.441       .  A
C132        C133   1.399       .  A
C132        H137   1.086       .  S
C133        C134   1.431       .  A
C133        C140   1.446       .  S
C134        C135   1.410       .  A
C135        C136   1.411       .  A
C135        H138   1.086       .  S
C136        C139   1.442       .  S
C139        N141   1.158       .  T
C140        N142   1.158       .  T
C143        C144   1.390       .  A
C143        C148   1.402       .  A
C144        C145   1.394       .  A
C144        H149   1.089       .  S
C145        C146   1.440       .  A
C145        C152   1.443       .  S
C146        C147   1.423       .  A
C147        C148   1.407       .  A
C147        H150   1.084       .  S
C148        C151   1.443   1_556  S
C151        N153   1.157       .  T
C152        N154   1.158       .  T
C155        C156   1.415       .  A
C155        C160   1.435       .  A
C156        C157   1.409       .  A
C156        H161   1.083   1_565  S
C157        C158   1.428       .  A
C157        C164   1.445       .  S
C158        C159   1.412       .  A
C159        C160   1.413       .  A
C159        H162   1.081       .  S
C160        C163   1.439   1_556  S
C163        N165   1.157       .  T
C164        N166   1.157       .  T
C167        C168   1.402       .  A
C167        C172   1.397       .  A
C168        C169   1.392       .  A
C168        H173   1.087       .  S
C169        C170   1.424       .  A
C169        C176   1.440       .  S
C170        C171   1.436       .  A
C171        C172   1.406       .  A
C171        H174   1.080       .  S
C172        C175   1.443       .  S
C175        N177   1.157       .  T
C176        N178   1.158       .  T
C179        C180   1.424       .  A
C179        C184   1.415       .  A
C180        C181   1.417       .  A
C180        H185   1.078       .  S
C181        C182   1.432       .  A
C181        C188   1.435       .  S
C182        C183   1.431       .  A
C183        C184   1.403       .  A
C183        H186   1.075       .  S
C184        C187   1.444       .  S
C187        N189   1.158       .  T
C188        N190   1.157       .  T
C191        C192   1.402       .  A
C191        C196   1.428       .  A
C192        C193   1.413       .  A
C192        H197   1.084       .  S
C193        C194   1.433       .  A
C193        C200   1.442       .  S
C194        C195   1.402       .  A
C195        C196   1.380       .  A
C195        H198   1.080       .  S
C196        C199   1.450       .  S
C199        N201   1.158       .  T
C200        N202   1.158       .  T
C203        C204   1.396       .  A
C203        C208   1.408       .  A
C204        C205   1.408       .  A
C204        H209   1.085       .  S
C205        C206   1.436       .  A
C205        C212   1.443       .  S
C206        C207   1.407       .  A
C207        C208   1.384       .  A
C207        H210   1.079       .  S
C208        C211   1.447       .  S
C211        N213   1.157       .  T
C212        N214   1.158       .  T
C215        C216   1.413       .  A
C215        C220   1.430       .  A
C216        C217   1.380       .  A
C216        H221   1.081       .  S
C217        C218   1.407       .  A
C217        C224   1.449       .  S
C218        C219   1.403       .  A
C219        C220   1.415       .  A
C219        H222   1.084       .  S
C220        C223   1.441       .  S
C223        N225   1.157       .  T
C224        N226   1.157       .  T
C227        C228   1.412       .  A
C227        C232   1.430       .  A
C228        C229   1.403       .  A
C228        H233   1.085       .  S
C229        C230   1.431       .  A
C229        C236   1.444   1_565  S
C230        C231   1.412       .  A
C231        C232   1.410       .  A
C231        H234   1.083   1_554  S
C232        C235   1.442       .  S
C235        N237   1.158       .  T
C236        N238   1.157       .  T
C239        C240   1.407       .  A
C239        C244   1.403       .  A
C240        C241   1.386       .  A
C240        H245   1.086       .  S
C241        C242   1.419       .  A
C241        C248   1.443       .  S
C242        C243   1.434       .  A
C243        C244   1.416       .  A
C243        H246   1.079       .  S
C244        C247   1.442       .  S
C247        N249   1.157       .  T
C248        N250   1.156       .  T
C251        C252   1.416       .  A
C251        C256   1.439       .  A
C252        C253   1.415       .  A
C252        H257   1.085       .  S
C253        C254   1.428       .  A
C253        C260   1.441       .  S
C254        C255   1.411       .  A
C255        C256   1.408       .  A
C255        H258   1.086       .  S
C256        C259   1.444       .  S
C259        N261   1.158       .  T
C260        N262   1.157       .  T
C263        C264   1.424       .  A
C263        C268   1.440       .  A
C264        C265   1.406       .  A
C264        H269   1.084       .  S
C265        C266   1.399       .  A
C265        C272   1.442   1_554  S
C266        C267   1.389       .  A
C267        C268   1.387       .  A
C267        H270   1.088       .  S
C268        C271   1.446       .  S
C271        N273   1.158       .  T
C272        N274   1.157       .  T
C275        C276   1.397       .  A
C275        C280   1.396       .  A
C276        C277   1.401       .  A
C276        H281   1.088       .  S
C277        C278   1.431       .  A
C277        C284   1.434       .  S
C278        C279   1.431       .  A
C279        C280   1.399       .  A
C279        H282   1.082       .  S
C280        C283   1.444       .  S
C283        N285   1.157       .  T
C284        N286   1.157       .  T
C287        C288   1.401       .  A
C287        C292   1.409       .  A
C288        C289   1.412       .  A
C288        H293   1.085       .  S
C289        C290   1.432       .  A
C289        C296   1.443       .  S
C290        C291   1.413       .  A
C291        C292   1.386       .  A
C291        H294   1.080       .  S
C292        C295   1.449       .  S
C295        N297   1.157       .  T
C296        N298   1.157       .  T
C299        C300   1.406       .  A
C299        C304   1.424       .  A
C300        C301   1.415       .  A
C300        H305   1.080       .  S
C301        C302   1.439       .  A
C301        C308   1.431       .  S
C302        C303   1.426       .  A
C303        C304   1.411       .  A
C303        H306   1.068       .  S
C304        C307   1.446       .  S
C307        N309   1.157       .  T
C308        N310   1.153       .  T
C311        C312   1.411       .  A
C311        C316   1.437       .  A
C312        C313   1.389       .  A
C312        H317   1.075       .  S
C313        C314   1.414       .  A
C313        C320   1.447       .  S
C314        C315   1.396       .  A
C315        C316   1.407       .  A
C315        H318   1.086       .  S
C316        C319   1.441       .  S
C319        N321   1.157       .  T
C320        N322   1.158       .  T
C323        C324   1.407       .  A
C323        C328   1.396       .  A
C324        C325   1.409       .  A
C324        H329   1.082   1_565  S
C325        C326   1.426       .  A
C325        C332   1.443       .  S
C326        C327   1.416       .  A
C327        C328   1.379       .  A
C327        H330   1.074       .  S
C328        C331   1.436       .  S
C331        N333   1.154       .  T
C332        N334   1.158       .  T
C335        C336   1.431       .  A
C335        C340   1.430       .  A
C336        C337   1.403       .  A
C336        H341   1.074       .  S
C337        C338   1.395       .  A
C337        C344   1.444       .  S
C338        C339   1.405       .  A
C339        C340   1.395       .  A
C339        H342   1.087   1_545  S
C340        C343   1.449       .  S
C343        N345   1.158       .  T
C344        N346   1.157       .  T
C347        C348   1.425       .  A
C347        C352   1.429       .  A
C348        C349   1.397       .  A
C348        H353   1.083       .  S
C349        C350   1.399       .  A
C349        C356   1.443       .  S
C350        C351   1.404       .  A
C351        C352   1.406       .  A
C351        H354   1.086       .  S
C352        C355   1.443       .  S
C355        N357   1.158       .  T
C356        N358   1.157       .  T
C359        C360   1.396       .  A
C359        C364   1.421       .  A
C360        C361   1.409       .  A
C360        H365   1.084       .  S
C361        C362   1.435       .  A
C361        C368   1.441       .  S
C362        C363   1.404       .  A
C363        C364   1.387       .  A
C363        H366   1.083       .  S
C364        C367   1.448       .  S
C367        N369   1.157       .  T
C368        N370   1.157       .  T
C371        C372   1.387       .  A
C371        C376   1.412       .  A
C372        C373   1.401       .  A
C372        H377   1.086       .  S
C373        C374   1.444       .  A
C373        C380   1.440       .  S
C374        C375   1.413       .  A
C375        C376   1.396       .  A
C375        H378   1.079       .  S
C376        C379   1.447   1_565  S
C379        N381   1.157       .  T
C380        N382   1.157       .  T
C383        C384   1.393       .  A
C383        C388   1.417       .  A
C384        C385   1.410       .  A
C384        H389   1.085       .  S
C385        C386   1.443       .  A
C385        C392   1.440       .  S
C386        C387   1.409       .  A
C387        C388   1.387       .  A
C387        H390   1.085       .  S
C388        C391   1.448       .  S
C391        N393   1.157       .  T
C392        N394   1.158       .  T
C395        C396   1.395       .  A
C395        C400   1.415       .  A
C396        C397   1.403       .  A
C396        H401   1.085       .  S
C397        C398   1.442       .  A
C397        C404   1.444       .  S
C398        C399   1.412       .  A
C399        C400   1.393       .  A
C399        H402   1.080       .  S
C400        C403   1.447       .  S
C403        N405   1.158   1_556  T
C404        N406   1.158       .  T
C407        C408   1.397       .  A
C407        C412   1.417       .  A
C408        C409   1.409       .  A
C408        H413   1.085       .  S
C409        C410   1.436       .  A
C409        C416   1.444       .  S
C410        C411   1.404       .  A
C411        C412   1.389       .  A
C411        H414   1.080       .  S
C412        C415   1.448       .  S
C415        N417   1.157       .  T
C416        N418   1.158       .  T
C419        C420   1.411       .  A
C419        C424   1.432       .  A
C420        C421   1.405       .  A
C420        H425   1.073   1_556  S
C421        C422   1.430       .  A
C421        C428   1.445       .  S
C422        C423   1.413       .  A
C423        C424   1.415       .  A
C423        H426   1.076       .  S
C424        C427   1.444   1_545  S
C427        N429   1.158       .  T
C428        N430   1.158   1_556  T
C431        C432   1.403       .  A
C431        C436   1.404       .  A
C432        C433   1.417       .  A
C432        H437   1.083       .  S
C433        C434   1.432       .  A
C433        C440   1.442       .  S
C434        C435   1.421       .  A
C435        C436   1.393       .  A
C435        H438   1.079       .  S
C436        C439   1.446       .  S
C439        N441   1.157       .  T
C440        N442   1.157       .  T
C443        C444   1.428       .  A
C443        C448   1.434       .  A
C444        C445   1.411       .  A
C444        H449   1.078       .  S
C445        C446   1.408       .  A
C445        C452   1.444       .  S
C446        C447   1.407       .  A
C447        C448   1.398       .  A
C447        H450   1.084       .  S
C448        C451   1.452       .  S
C451        N453   1.158       .  T
C452        N454   1.157       .  T
C455        C456   1.398       .  A
C455        C460   1.394       .  A
C456        C457   1.399       .  A
C456        H461   1.088       .  S
C457        C458   1.434       .  A
C457        C464   1.436       .  S
C458        C459   1.443       .  A
C459        C460   1.405       .  A
C459        H462   1.081       .  S
C460        C463   1.444       .  S
C463        N465   1.157       .  T
C464        N466   1.159       .  T
C467        C468   1.402       .  A
C467        C472   1.397       .  A
C468        C469   1.408       .  A
C468        H473   1.085   1_655  S
C469        C470   1.428       .  A
C469        C476   1.440       .  S
C470        C471   1.420       .  A
C471        C472   1.393       .  A
C471        H474   1.073       .  S
C472        C475   1.445       .  S
C475        N477   1.157       .  T
C476        N478   1.157   1_655  T
