geometry optimzed in LAMMPS
_audit_creation_date              2020-11-30 
_audit_creation_method            'lammps2cif' 
_symmetry_space_group_name_H-M    'P1' 
_symmetry_Int_Tables_number       1 
_symmetry_cell_setting            triclinic 
loop_ 
_symmetry_equiv_pos_as_xyz 
  x,y,z 
_cell_length_a                    40.391229496540916 
_cell_length_b                    40.562496546372365 
_cell_length_c                    42.312930601111724 
_cell_angle_alpha                 90.28386893996388 
_cell_angle_beta                  90.28595219658547 
_cell_angle_gamma                 90.0264664541402 
loop_ 
_atom_site_label 
_atom_site_type_symbol 
_atom_site_fract_x 
_atom_site_fract_y 
_atom_site_fract_z 
_atom_site_charge 
O1          O  0.62284707  0.91671804  0.21420201    -0.57000
C2          C  0.62997933  0.92661867  0.31498069     0.75630
O3          O  0.67632286  0.99773401  0.24364284    -0.58160
C4          C  0.61318915  0.93765090  0.19384661     0.75600
C5          C  0.56690714  0.99314764  0.26112539     0.77990
Cd6        Cd  0.62909783  0.95948882  0.25529400     1.37460
O7          O  0.61988020  0.91230975  0.29001927    -0.57000
O8          O  0.56977755  0.96242129  0.25674087    -0.55810
C9          C  0.69258348  0.97477192  0.23014455     0.77950
O10         O  0.59378738  0.00939644  0.26416712    -0.58180
O11         O  0.64258265  0.95505320  0.31172424    -0.56630
O12         O  0.61004530  0.96727901  0.20281173    -0.56620
O13         O  0.68170970  0.94570387  0.23308272    -0.55790
O14         O  0.60913074  0.89860520  0.46479885    -0.57000
C15         C  0.58471312  0.91137279  0.06332661     0.75630
O16         O  0.51349576  0.93000248  0.99731399    -0.58160
C17         C  0.59207428  0.89037966  0.44071008     0.75600
C18         C  0.54995091  0.83062797  0.02780226     0.77990
Cd19       Cd  0.56316774  0.89418817  0.00213368     1.37460
O20         O  0.60628252  0.90403224  0.04258645    -0.57000
O21         O  0.57879131  0.84218036  0.02417032    -0.55810
C22         C  0.53029434  0.95658038  0.99585321     0.77950
O23         O  0.52619379  0.84626863  0.01478147    -0.58180
O24         O  0.55468644  0.91163083  0.05472036    -0.56630
O25         O  0.56255528  0.88112186  0.44578303    -0.56620
O26         O  0.56148664  0.95353965  0.49578217    -0.55790
O27         O  0.38316083  0.13028216  0.21644640    -0.57000
C28         C  0.37003375  0.10875085  0.31560814     0.75630
O29         O  0.33033547  0.04388628  0.23207241    -0.58160
C30         C  0.38170891  0.11172965  0.19213225     0.75600
C31         C  0.43551388  0.05082009  0.25731336     0.77990
Cd32       Cd  0.37260546  0.08330082  0.25233146     1.37460
O33         O  0.37482197  0.12772938  0.29225494    -0.57000
O34         O  0.43255179  0.08168142  0.25426425    -0.55810
C35         C  0.30757535  0.06551134  0.23136314     0.77950
O36         O  0.40877577  0.03423449  0.25814348    -0.58180
O37         O  0.36369306  0.07882690  0.30907806    -0.56630
O38         O  0.37725378  0.08131055  0.19660529    -0.56620
O39         O  0.31387447  0.09287344  0.24469606    -0.55790
O40         O  0.39332801  0.13805820  0.03984621    -0.57000
C41         C  0.40553092  0.14780560  0.44233548     0.75630
O42         O  0.47471449  0.19787042  0.01709683    -0.58160
C43         C  0.41234795  0.14025508  0.06382065     0.75600
C44         C  0.47337382  0.08808448  0.49920773     0.77990
Cd45       Cd  0.43818397  0.14986524  0.00266877     1.37460
O46         O  0.39181878  0.13740129  0.46723981    -0.57000
O47         O  0.44346076  0.09107416  0.50724845    -0.55810
C48         C  0.44990279  0.21509177  0.02565471     0.77950
O49         O  0.48861453  0.11473001  0.99277368    -0.58180
O50         O  0.43321889  0.16225643  0.44566831    -0.56630
O51         O  0.44273744  0.14559950  0.05885688    -0.56620
O52         O  0.42153352  0.20443412  0.01781615    -0.55790
O53         O  0.89073630  0.90132744  0.33945707    -0.57000
C54         C  0.91110107  0.89336111  0.44118206     0.75630
O55         O  0.97256903  0.84595245  0.36175695    -0.58160
C56         C  0.91090007  0.90162385  0.31638421     0.75600
C57         C  0.96829114  0.95499490  0.38180522     0.77990
Cd58       Cd  0.93565408  0.89240176  0.37818099     1.37470
O59         O  0.89113589  0.89578551  0.41799142    -0.57000
O60         O  0.93721144  0.95198131  0.37880460    -0.55810
C61         C  0.94779200  0.82724500  0.35644463     0.77950
O62         O  0.98496331  0.92836803  0.38334073    -0.58180
O63         O  0.94108364  0.88685786  0.43482139    -0.56630
O64         O  0.94142107  0.89989369  0.32300924    -0.56620
O65         O  0.92021670  0.83667970  0.36736360    -0.55790
O66         O  0.88409722  0.91049677  0.16221894    -0.57000
C67         C  0.87122430  0.93276188  0.06628214     0.75630
O68         O  0.83024438  0.99932807  0.15079140    -0.58160
C69         C  0.87856005  0.92644185  0.18759345     0.75600
C70         C  0.93379698  0.99011776  0.12800118     0.77990
Cd71       Cd  0.87000611  0.95866187  0.12912002     1.37470
O72         O  0.86718344  0.91343700  0.08946010    -0.57000
O73         O  0.92944233  0.96038588  0.13570981    -0.55810
C74         C  0.80583843  0.97966388  0.14884293     0.77950
O75         O  0.90785833  0.00654595  0.12133647    -0.58180
O76         O  0.87070865  0.96343969  0.07205945    -0.56630
O77         O  0.86898348  0.95590599  0.18515857    -0.56620
O78         O  0.81022497  0.95342038  0.13301997    -0.55790
O79         O  0.12148224  0.12600238  0.09056329    -0.57000
C80         C  0.11568918  0.10296356  0.18872573     0.75630
O81         O  0.09223251  0.02968211  0.12328744    -0.58160
C82         C  0.12753904  0.10916938  0.06592379     0.75600
C83         C  0.19303664  0.06804588  0.14997696     0.77990
Cd84       Cd  0.12795484  0.07981843  0.12687852     1.37460
O85         O  0.11561587  0.12316393  0.16578460    -0.57000
O86         O  0.18126053  0.09663740  0.14586097    -0.55810
C87         C  0.06551033  0.04633057  0.12196176     0.77950
O88         O  0.17700350  0.04392343  0.13798170    -0.58180
O89         O  0.11938088  0.07273469  0.18216174    -0.56630
O90         O  0.13783863  0.07989116  0.06970570    -0.56620
O91         O  0.06842824  0.07735450  0.12223310    -0.55790
O92         O  0.10613099  0.14524409  0.41735552    -0.57000
C93         C  0.08697135  0.13639434  0.31714387     0.75630
O94         O  0.01047276  0.11266782  0.38366721    -0.58160
C95         C  0.08682760  0.14758637  0.44087444     0.75600
C96         C  0.04952475  0.21329932  0.35692046     0.77990
Cd97       Cd  0.06079131  0.14778789  0.37799570     1.37470
O98         O  0.10557428  0.13262538  0.34124279    -0.57000
O99         O  0.07705435  0.20344463  0.36779697    -0.55810
C100        C  0.02666483  0.08584538  0.38096998     0.77950
O101        O  0.02457915  0.19477146  0.36166185    -0.58180
O102        O  0.05713732  0.14426138  0.32194650    -0.56630
O103        O  0.05653084  0.15318417  0.43487840    -0.56620
O104        O  0.05754203  0.08856182  0.37682097    -0.55790
O105        O  0.37376592  0.41789203  0.33674507    -0.57000
C106        C  0.38066055  0.43313176  0.43584290     0.75630
O107        O  0.40626793  0.51249493  0.37149755    -0.58160
C108        C  0.36773109  0.43614642  0.31310972     0.75600
C109        C  0.30539186  0.47661140  0.39801478     0.77990
Cd110      Cd  0.37070964  0.46253924  0.37614513     1.37460
O111        O  0.38396422  0.41558409  0.41106577    -0.57000
O112        O  0.31364484  0.44947635  0.38536736    -0.55810
C113        C  0.43307890  0.49599517  0.37213405     0.77950
O114        O  0.32615086  0.50010843  0.39583863    -0.58180
O115        O  0.37421133  0.46333240  0.43223139    -0.56630
O116        O  0.36043837  0.46595882  0.31915012    -0.56620
O117        O  0.43028115  0.46509410  0.37466896    -0.55790
O118        O  0.38833519  0.40652564  0.16169815    -0.57000
C119        C  0.40919478  0.40456330  0.06458950     0.75630
O120        O  0.48529818  0.43121232  0.13447517    -0.58160
C121        C  0.40302697  0.39722009  0.18667216     0.75600
C122        C  0.45131607  0.33093958  0.10595351     0.77990
Cd123      Cd  0.43496769  0.39629556  0.12630552     1.37460
O124        O  0.38945393  0.40423166  0.08789547    -0.57000
O125        O  0.42333877  0.33853610  0.11731962    -0.55810
C126        C  0.46919782  0.45810295  0.13233791     0.77950
O127        O  0.47416196  0.35234892  0.10889732    -0.58180
O128        O  0.43976710  0.40269303  0.07068148    -0.56630
O129        O  0.43151444  0.38443525  0.18334792    -0.56620
O130        O  0.43834131  0.45566860  0.12789259    -0.55790
O131        O  0.61834749  0.63148636  0.41649157    -0.57000
C132        C  0.62834671  0.61024595  0.31559212     0.75630
O133        O  0.66927451  0.54424641  0.39666278    -0.58160
C134        C  0.61650588  0.61186170  0.43983766     0.75600
C135        C  0.56388144  0.55482242  0.37453689     0.77990
Cd136      Cd  0.62784202  0.58538173  0.37890157     1.37470
O137        O  0.62726309  0.63001663  0.33897500    -0.57000
O138        O  0.56803720  0.58526899  0.37980338    -0.55810
C139        C  0.69206778  0.56549750  0.40058530     0.77950
O140        O  0.59001382  0.53765823  0.37095920    -0.58180
O141        O  0.63261322  0.58000161  0.32193592    -0.56630
O142        O  0.61876201  0.58137868  0.43394056    -0.56620
O143        O  0.68674212  0.59415405  0.38993956    -0.55790
O144        O  0.60617702  0.64668744  0.16557199    -0.57000
C145        C  0.58730398  0.64358689  0.06836644     0.75630
O146        O  0.51012845  0.61565659  0.13787086    -0.58160
C147        C  0.58870699  0.64954382  0.19026910     0.75600
C148        C  0.54325631  0.71751689  0.10963065     0.77990
Cd149      Cd  0.55918919  0.65198539  0.12881532     1.37460
O150        O  0.60520703  0.63950078  0.09284854    -0.57000
O151        O  0.57020023  0.71028856  0.12343470    -0.55810
C152        C  0.52600995  0.58932618  0.13158061     0.77950
O153        O  0.52078832  0.69553392  0.10962780    -0.58180
O154        O  0.55731401  0.65118270  0.07243371    -0.56630
O155        O  0.55847629  0.65715116  0.18657969    -0.56620
O156        O  0.55589478  0.59287327  0.12359351    -0.55790
O157        O  0.10580777  0.39487629  0.21444462    -0.57000
C158        C  0.08616616  0.40373153  0.31507842     0.75630
O159        O  0.01110496  0.42811582  0.24761856    -0.58160
C160        C  0.08625947  0.39285851  0.19087568     0.75600
C161        C  0.04756791  0.32744793  0.27478271     0.77990
Cd162      Cd  0.06072701  0.39280972  0.25373089     1.37460
O163        O  0.10577981  0.40491240  0.29162510    -0.57000
O164        O  0.07512032  0.33643870  0.26347451    -0.55810
C165        C  0.02761173  0.45487772  0.24887363     0.77950
O166        O  0.02342247  0.34724522  0.27107989    -0.58180
O167        O  0.05576853  0.39939927  0.30921029    -0.56630
O168        O  0.05597294  0.38733689  0.19677261    -0.56620
O169        O  0.05863316  0.45220895  0.25242351    -0.55790
O170        O  0.12389342  0.41470832  0.04199710    -0.57000
C171        C  0.11755213  0.43446255  0.44361063     0.75630
O172        O  0.09313242  0.51092922  0.00888014    -0.58160
C173        C  0.12691657  0.43264479  0.06647606     0.75600
C174        C  0.19378375  0.47353060  0.48321473     0.77990
Cd175      Cd  0.12848926  0.46072905  0.00483212     1.37470
O176        O  0.11496866  0.41572852  0.46750285    -0.57000
O177        O  0.18382447  0.44520061  0.49134540    -0.55810
C178        C  0.06617831  0.49463141  0.00779335     0.77950
O179        O  0.17581471  0.49796968  0.49117400    -0.58180
O180        O  0.12355558  0.46459878  0.44875861    -0.56630
O181        O  0.13460647  0.46265621  0.06244965    -0.56620
O182        O  0.06877779  0.46365538  0.00547386    -0.55790
O183        O  0.88945680  0.63871113  0.21649005    -0.57000
C184        C  0.91296659  0.64100387  0.31542049     0.75630
O185        O  0.98566898  0.61222215  0.24310038    -0.58160
C186        C  0.90468378  0.64815176  0.19194971     0.75600
C187        C  0.94993326  0.71336585  0.27304046     0.77990
Cd188      Cd  0.93634858  0.64774258  0.25280272     1.37470
O189        O  0.89242745  0.64117949  0.29250024    -0.57000
O190        O  0.92215183  0.70392618  0.26229246    -0.55810
C191        C  0.96963926  0.58560633  0.24766582     0.77950
O192        O  0.97419531  0.69374762  0.26905124    -0.58180
O193        O  0.94337732  0.64173581  0.30847334    -0.56630
O194        O  0.93370318  0.65948632  0.19609145    -0.56620
O195        O  0.93926223  0.58863549  0.25420269    -0.55790
O196        O  0.87392467  0.63103870  0.04091888    -0.57000
C197        C  0.88131403  0.61858933  0.44426031     0.75630
O198        O  0.90813836  0.53658642  0.01190576    -0.58160
C199        C  0.86758747  0.61335820  0.06480174     0.75600
C200        C  0.80871776  0.56407499  0.47831579     0.77990
Cd201      Cd  0.87167603  0.58554342  0.50230531     1.37460
O202        O  0.88526297  0.63465549  0.46985549    -0.57000
O203        O  0.81148640  0.59015429  0.49475669    -0.55810
C204        C  0.93472954  0.55231466  0.00645179     0.77950
O205        O  0.83374818  0.54520911  0.47729984    -0.58180
O206        O  0.87304786  0.58872790  0.44629032    -0.56630
O207        O  0.86024297  0.58344865  0.05930049    -0.56620
O208        O  0.93141504  0.58232232  0.99932058    -0.55790
C209        C  0.87130884  0.62628425  0.09751204    -0.04650
C210        C  0.89242398  0.65327441  0.10307527    -0.32080
C211        C  0.90230709  0.66183312  0.13384795     0.37170
C212        C  0.89028225  0.64394229  0.15985942    -0.05010
C213        C  0.86682972  0.61890715  0.15446467    -0.31980
C214        C  0.85769873  0.60970498  0.12363058     0.37080
H215        H  0.90303543  0.66656856  0.08342048     0.17450
O216        O  0.92413888  0.68740034  0.13817334    -0.59480
H217        H  0.85704015  0.60497355  0.17410300     0.17460
O218        O  0.83592988  0.58408590  0.11931089    -0.59570
H219        H  0.84926871  0.56379307  0.12224516     0.44460
H220        H  0.94623593  0.67813409  0.13317730     0.44410
C221        C  0.88718245  0.63246136  0.41304113    -0.04650
C222        C  0.86256507  0.62887451  0.38979380    -0.32080
C223        C  0.87007848  0.63293811  0.35783747     0.37170
C224        C  0.90281219  0.64012892  0.34886843    -0.05010
C225        C  0.92692630  0.64557386  0.37250114    -0.31980
C226        C  0.91924375  0.64190874  0.40441245     0.37080
H227        H  0.83782920  0.62121864  0.39635324     0.17450
O228        O  0.84559607  0.62846642  0.33565568    -0.59480
H229        H  0.95220208  0.65153365  0.36624270     0.17460
O230        O  0.94399429  0.64420036  0.42663753    -0.59570
H231        H  0.94364404  0.66748627  0.43386176     0.44460
H232        H  0.84507245  0.60438983  0.33147919     0.44410
C233        C  0.96823491  0.53722240  0.00794647    -0.04650
C234        C  0.99600465  0.55658191  0.50023332    -0.32080
C235        C  0.02805861  0.54343336  0.50079015     0.37170
C236        C  0.03298067  0.51020536  0.00889135    -0.05010
C237        C  0.00532135  0.49090006  0.01695162    -0.31980
C238        C  0.97324640  0.50408782  0.01655393     0.37080
H239        H  0.99294524  0.58210432  0.49339014     0.17450
O240        O  0.05413771  0.56291312  0.49192886    -0.59480
H241        H  0.00850957  0.46530582  0.02351507     0.17460
O242        O  0.94713910  0.48438541  0.02488559    -0.59570
H243        H  0.94074863  0.47252718  0.00522810     0.44460
H244        H  0.06066568  0.57515751  0.51132471     0.44410
C245        C  0.98483526  0.55229625  0.24606553    -0.04650
C246        C  0.96468648  0.52445226  0.25105079    -0.32080
C247        C  0.97795767  0.49259217  0.25121394     0.37170
C248        C  0.01210972  0.48792559  0.24665237    -0.05010
C249        C  0.03219139  0.51564647  0.24096460    -0.31980
C250        C  0.01887283  0.54754671  0.24061477     0.37080
H251        H  0.93841066  0.52729143  0.25528348     0.17450
O252        O  0.95748759  0.46641985  0.25729071    -0.59480
H253        H  0.05850739  0.51267636  0.23702174     0.17460
O254        O  0.03941685  0.57376749  0.23496285    -0.59570
H255        H  0.04898872  0.57968652  0.25586335     0.44460
H256        H  0.94780719  0.46023170  0.23650726     0.44410
C257        C  0.11736985  0.42043007  0.09775994    -0.04650
C258        C  0.14004505  0.40480881  0.11793432    -0.32080
C259        C  0.13018663  0.39446911  0.14817148     0.37170
C260        C  0.09725688  0.39949775  0.15818930    -0.05010
C261        C  0.07460672  0.41427063  0.13735785    -0.31980
C262        C  0.08455243  0.42507668  0.10763442     0.37080
H263        H  0.16537624  0.40106199  0.11043713     0.17450
O264        O  0.15289322  0.37977860  0.16773735    -0.59480
H265        H  0.04930924  0.41876917  0.14462017     0.17460
O266        O  0.06197837  0.44042797  0.08832958    -0.59570
H267        H  0.06396436  0.46425271  0.09339870     0.44460
H268        H  0.15049520  0.35578691  0.16370441     0.44410
C269        C  0.09740220  0.40764818  0.34793445    -0.04650
C270        C  0.12395179  0.42863803  0.35490776    -0.32080
C271        C  0.13177909  0.43636256  0.38628105     0.37170
C272        C  0.11321547  0.42255958  0.41107405    -0.05010
C273        C  0.08835100  0.39960433  0.40418281    -0.31980
C274        C  0.08002688  0.39242607  0.37281296     0.37080
H275        H  0.13761222  0.44033866  0.33604925     0.17450
O276        O  0.15688038  0.45828702  0.39249623    -0.59480
H277        H  0.07412446  0.38861721  0.42305796     0.17460
O278        O  0.05480679  0.37058421  0.36668350    -0.59570
H279        H  0.03410859  0.38333248  0.36976170     0.44460
H280        H  0.17759231  0.44586694  0.38852697     0.44410
C281        C  0.72170592  0.55884641  0.42005921    -0.04650
C282        C  0.75313474  0.55660932  0.40640578    -0.32080
C283        C  0.78163236  0.55559010  0.42555908     0.37170
C284        C  0.77891086  0.55803660  0.45876474    -0.05010
C285        C  0.74744100  0.55995991  0.47232726    -0.31980
C286        C  0.71899761  0.55973895  0.45324544     0.37080
H287        H  0.75564145  0.55673201  0.38092565     0.17450
O288        O  0.81214555  0.55530997  0.41149905    -0.59480
H289        H  0.74495089  0.56256767  0.49770508     0.17460
O290        O  0.68865010  0.56296749  0.46718538    -0.59570
H291        H  0.68074982  0.54008576  0.47039669     0.44460
H292        H  0.81769744  0.53166371  0.40878256     0.44410
C293        C  0.62227193  0.62100924  0.28258845    -0.04650
C294        C  0.61014619  0.59765086  0.26078897    -0.32080
C295        C  0.59960928  0.60711133  0.23070551     0.37170
C296        C  0.60172855  0.64025041  0.22148744    -0.05010
C297        C  0.61479041  0.66368530  0.24260303    -0.31980
C298        C  0.62509773  0.65423932  0.27307082     0.37080
H299        H  0.60739901  0.57205509  0.26750631     0.17450
O300        O  0.58658818  0.58380032  0.21055901    -0.59480
H301        H  0.61651000  0.68929643  0.23565878     0.17460
O302        O  0.63733752  0.67770666  0.29342190    -0.59570
H303        H  0.66166171  0.67729831  0.29035374     0.44460
H304        H  0.56243299  0.58385797  0.21469262     0.44410
C305        C  0.59966762  0.63849980  0.03631177    -0.04650
C306        C  0.58992947  0.66019673  0.01220401    -0.32080
C307        C  0.59647201  0.65275424  0.48050654     0.37170
C308        C  0.61222512  0.62290110  0.47275345    -0.05010
C309        C  0.62242536  0.60168176  0.49712303    -0.31980
C310        C  0.61684930  0.60958797  0.02870134     0.37080
H311        H  0.57633378  0.68245371  0.01793943     0.17450
O312        O  0.58589286  0.67391181  0.45738305    -0.59480
H313        H  0.63389192  0.57826514  0.49173909     0.17460
O314        O  0.62550556  0.58743369  0.05169666    -0.59570
H315        H  0.64874211  0.59290040  0.05729828     0.44460
H316        H  0.56299127  0.66680831  0.45220118     0.44410
C317        C  0.48485317  0.49107446  0.13434413    -0.04650
C318        C  0.46565317  0.51831037  0.14379332    -0.32080
C319        C  0.47867423  0.55034328  0.14363585     0.37170
C320        C  0.51129311  0.55578729  0.13325490    -0.05010
C321        C  0.53061838  0.52838465  0.12429158    -0.31980
C322        C  0.51776251  0.49632255  0.12497598     0.37080
H323        H  0.44027449  0.51478673  0.15124886     0.17450
O324        O  0.45904150  0.57607535  0.15314909    -0.59480
H325        H  0.55581802  0.53175188  0.11627304     0.17460
O326        O  0.53697722  0.47060713  0.11465155    -0.59570
H327        H  0.55023115  0.46390278  0.13333150     0.44460
H328        H  0.46255116  0.57784252  0.17631315     0.44410
C329        C  0.22256033  0.47639129  0.46180189    -0.04650
C330        C  0.22683191  0.45113168  0.43943138    -0.32080
C331        C  0.25184748  0.45249342  0.41693210     0.37170
C332        C  0.27450735  0.47897960  0.41695350    -0.05010
C333        C  0.26991686  0.50484651  0.43893007    -0.31980
C334        C  0.24393128  0.50381531  0.46107616     0.37080
H335        H  0.21011943  0.43021135  0.43890402     0.17450
O336        O  0.25434872  0.42709024  0.39555121    -0.59480
H337        H  0.28714906  0.52530394  0.43971653     0.17460
O338        O  0.24031898  0.52912469  0.48236822    -0.59570
H339        H  0.25360286  0.52253915  0.50107488     0.44460
H340        H  0.24192778  0.43457946  0.37662801     0.44410
C341        C  0.46622770  0.51155322  0.37072958    -0.04650
C342        C  0.47030603  0.54443922  0.38023427    -0.32080
C343        C  0.50181163  0.55885869  0.38140862     0.37170
C344        C  0.53011805  0.54036499  0.37282392    -0.05010
C345        C  0.52587570  0.50769002  0.36257857    -0.31980
C346        C  0.49437800  0.49324809  0.36155799     0.37080
H347        H  0.44909335  0.55883374  0.38762281     0.17450
O348        O  0.50464286  0.59069626  0.39215570    -0.59480
H349        H  0.54706028  0.49313928  0.35541098     0.17460
O350        O  0.49134019  0.46141244  0.35081887    -0.59570
H351        H  0.49740935  0.44737847  0.36907975     0.44460
H352        H  0.50039358  0.60467559  0.37340633     0.44410
C353        C  0.38883053  0.40375079  0.21825314    -0.04650
C354        C  0.37225468  0.43369065  0.22339043    -0.32080
C355        C  0.36371304  0.44390685  0.25393243     0.37170
C356        C  0.37120011  0.42376740  0.28014085    -0.05010
C357        C  0.38559653  0.39266373  0.27464096    -0.31980
C358        C  0.39480386  0.38281964  0.24407108     0.37080
H359        H  0.36765021  0.45024532  0.20382847     0.17450
O360        O  0.34980055  0.47447127  0.25791524    -0.59480
H361        H  0.39130956  0.37653350  0.29425104     0.17460
O362        O  0.40970119  0.35277451  0.23968315    -0.59570
H363        H  0.43323546  0.35618226  0.24564457     0.44460
H364        H  0.32557255  0.47077136  0.25647222     0.44410
C365        C  0.38438624  0.42007226  0.46783364    -0.04650
C366        C  0.36307568  0.43164828  0.49156728    -0.32080
C367        C  0.36946925  0.42486301  0.02334083     0.37170
C368        C  0.39807572  0.40716012  0.03161282    -0.05010
C369        C  0.41828303  0.39398182  0.00769181    -0.31980
C370        C  0.41136186  0.40001695  0.47589413     0.37080
H371        H  0.34209960  0.44707804  0.48549664     0.17450
O372        O  0.34927381  0.43802696  0.04609365    -0.59480
H373        H  0.44021995  0.37992078  0.01371415     0.17460
O374        O  0.43285204  0.38894401  0.45321164    -0.59570
H375        H  0.42476425  0.36663271  0.44738832     0.44460
H376        H  0.33143240  0.42152442  0.04897059     0.44410
C377        C  0.04802907  0.24311935  0.33671840    -0.04650
C378        C  0.01834431  0.26051738  0.33184160    -0.32080
C379        C  0.01706536  0.28743681  0.31089211     0.37170
C380        C  0.04553167  0.29667147  0.29372517    -0.05010
C381        C  0.07475298  0.27851191  0.29814806    -0.31980
C382        C  0.07630181  0.25244157  0.31940407     0.37080
H383        H  0.99625612  0.25355635  0.34460261     0.17450
O384        O  0.98828594  0.30513885  0.30832979    -0.59480
H385        H  0.09715411  0.28504811  0.28566487     0.17460
O386        O  0.10589797  0.23621644  0.32294374    -0.59570
H387        H  0.10513402  0.21771859  0.30756533     0.44460
H388        H  0.97548768  0.29407834  0.29126014     0.44410
C389        C  0.09809492  0.14140573  0.47365328    -0.04650
C390        C  0.07503880  0.12871478  0.49511081    -0.32080
C391        C  0.08493128  0.11840028  0.02506646     0.37170
C392        C  0.11816865  0.12134715  0.03451901    -0.05010
C393        C  0.14138107  0.13471064  0.01363918    -0.31980
C394        C  0.13149218  0.14479318  0.48324371     0.37080
H395        H  0.04937610  0.12539185  0.48820299     0.17450
O396        O  0.06197183  0.10464964  0.04482745    -0.59480
H397        H  0.16707430  0.13703517  0.02077085     0.17460
O398        O  0.15462143  0.15756952  0.46310368    -0.59570
H399        H  0.15359716  0.18177593  0.46637792     0.45040
H400        H  0.06326212  0.08056793  0.04080310     0.44410
C401        C  0.11164917  0.11366333  0.22170750    -0.04650
C402        C  0.09283256  0.14175163  0.22847923    -0.32080
C403        C  0.08594886  0.15039244  0.25977027     0.37170
C404        C  0.09850623  0.13108122  0.28472266    -0.05010
C405        C  0.11917587  0.10432175  0.27804991    -0.31980
C406        C  0.12539234  0.09519194  0.24675703     0.37080
H407        H  0.08226073  0.15625071  0.20950430     0.17450
O408        O  0.06587496  0.17697945  0.26576968    -0.59480
H409        H  0.12901008  0.08936080  0.29705498     0.17460
O410        O  0.14494767  0.06820725  0.24091528    -0.59570
H411        H  0.13019791  0.04886302  0.24353644     0.44460
H412        H  0.07898493  0.19663792  0.25977190     0.44410
C413        C  0.96764348  0.00429755  0.12638105    -0.04650
C414        C  0.97287072  0.03428047  0.11081089    -0.32080
C415        C  0.00477225  0.04756311  0.10816723     0.37170
C416        C  0.03224349  0.03095304  0.12137026    -0.05010
C417        C  0.02714668  0.00074542  0.13649279    -0.31980
C418        C  0.99524467  0.98756118  0.13935939     0.37080
H419        H  0.95221607  0.04741179  0.10037193     0.17450
O420        O  0.00880899  0.07687214  0.09262197    -0.59480
H421        H  0.04782387  0.98782542  0.14714060     0.17460
O422        O  0.99140287  0.95846906  0.15532126    -0.59570
H423        H  0.98715696  0.96497534  0.17756431     0.44460
H424        H  0.00766946  0.07114213  0.06982913     0.44410
C425        C  0.95199252  0.74436907  0.29190763    -0.04650
C426        C  0.92244243  0.76166821  0.29724121    -0.32080
C427        C  0.92086249  0.78750102  0.31896217     0.37170
C428        C  0.94947550  0.79762641  0.33570075    -0.05010
C429        C  0.97953702  0.78130379  0.32967211    -0.31980
C430        C  0.98086892  0.75458572  0.30823831     0.37080
H431        H  0.89979429  0.75459679  0.28515967     0.17450
O432        O  0.89118858  0.80350990  0.32264517    -0.59480
H433        H  0.00192277  0.78900849  0.34182630     0.17460
O434        O  0.01020281  0.73814842  0.30424791    -0.59570
H435        H  0.02135282  0.74954354  0.28655919     0.44460
H436        H  0.87859004  0.79001919  0.33794528     0.44410
C437        C  0.98371219  0.98823838  0.38304186    -0.04650
C438        C  0.96337781  0.01629292  0.38596963    -0.32080
C439        C  0.97677172  0.04818899  0.38565012     0.37170
C440        C  0.01116496  0.05263651  0.38235958    -0.05010
C441        C  0.03150242  0.02453641  0.37993430    -0.31980
C442        C  0.01815096  0.99269025  0.38041658     0.37080
H443        H  0.93681936  0.01358913  0.38831088     0.17450
O444        O  0.95595641  0.07470446  0.38867107    -0.59480
H445        H  0.05805236  0.02713322  0.37742100     0.17460
O446        O  0.03898968  0.96621821  0.37718632    -0.59570
H447        H  0.04687740  0.96135129  0.39890107     0.44460
H448        H  0.94818105  0.07949125  0.36690347     0.44410
C449        C  0.90090079  0.90068359  0.47394842    -0.04650
C450        C  0.86966988  0.89120900  0.48539826    -0.32080
C451        C  0.85954468  0.90065792  0.01593373     0.37170
C452        C  0.88031915  0.92070649  0.03466899    -0.05010
C453        C  0.91128127  0.93014035  0.02311066    -0.31980
C454        C  0.92187153  0.91988412  0.49335274     0.37080
H455        H  0.85320285  0.87658028  0.47069274     0.17450
O456        O  0.82923619  0.89085415  0.02691049    -0.59480
H457        H  0.92748927  0.94556939  0.03736642     0.17460
O458        O  0.95201302  0.93058391  0.48263859    -0.59570
H459        H  0.96839516  0.91488226  0.49147749     0.44460
H460        H  0.81360816  0.90834201  0.02017613     0.44410
C461        C  0.90032384  0.90363738  0.28303809    -0.04650
C462        C  0.92390391  0.89749793  0.25930381    -0.32080
C463        C  0.91606860  0.90194205  0.22748175     0.37170
C464        C  0.88438022  0.91290224  0.21901305    -0.05010
C465        C  0.86023499  0.91744311  0.24235771    -0.31980
C466        C  0.86790013  0.91256484  0.27425349     0.37080
H467        H  0.94893996  0.89026809  0.26541972     0.17450
O468        O  0.94046855  0.89884919  0.20522114    -0.59480
H469        H  0.83579138  0.92625354  0.23592028     0.17460
O470        O  0.84393628  0.91784014  0.29655638    -0.59570
H471        H  0.84481625  0.94180373  0.30125559     0.44460
H472        H  0.93936029  0.87554784  0.19810872     0.44410
C473        C  0.45268998  0.24422299  0.04683466    -0.04650
C474        C  0.47753324  0.26812367  0.04328327    -0.32080
C475        C  0.47859745  0.29603019  0.06330669     0.37170
C476        C  0.45536545  0.29958018  0.08803860    -0.05010
C477        C  0.43174764  0.27469387  0.09231470    -0.31980
C478        C  0.43005300  0.24757421  0.07194481     0.37080
H479        H  0.49524542  0.26585025  0.02425964     0.17450
O480        O  0.50137720  0.32030699  0.05751359    -0.59480
H481        H  0.41363054  0.27673534  0.11102892     0.17460
O482        O  0.40646940  0.22390984  0.07730799    -0.59570
H483        H  0.38576598  0.23270823  0.06789583     0.44460
H484        H  0.49040457  0.33532599  0.04227917     0.44410
C485        C  0.27634558  0.06085757  0.21333821    -0.04650
C486        C  0.27636397  0.04257470  0.18489542    -0.32080
C487        C  0.24929806  0.04402415  0.16382115     0.37170
C488        C  0.22183464  0.06382778  0.17121335    -0.05010
C489        C  0.22135959  0.08090685  0.20014858    -0.31980
C490        C  0.24805216  0.07935573  0.22116429     0.37080
H491        H  0.29814945  0.02872522  0.17810997     0.17450
O492        O  0.25071203  0.02752998  0.13550057    -0.59480
H493        H  0.20012893  0.09587132  0.20643362     0.17460
O494        O  0.24665504  0.09698852  0.24887219    -0.59570
H495        H  0.23722708  0.08154873  0.26454808     0.44460
H496        H  0.26090760  0.04331152  0.12058198     0.44410
C497        C  0.39134910  0.14053762  0.41082500    -0.04650
C498        C  0.37870291  0.10885736  0.40510222    -0.32080
C499        C  0.37023722  0.09860646  0.37450326     0.37170
C500        C  0.37373547  0.12044740  0.34881692    -0.05010
C501        C  0.38435425  0.15294155  0.35497677    -0.31980
C502        C  0.39354820  0.16288827  0.38562534     0.37080
H503        H  0.37720254  0.09121367  0.42420068     0.17450
O504        O  0.36059409  0.06651274  0.36987093    -0.59480
H505        H  0.38699741  0.17031844  0.33579649     0.17460
O506        O  0.40457334  0.19446184  0.39072910    -0.59570
H507        H  0.42819917  0.19426837  0.38447161     0.44460
H508        H  0.33625651  0.06655734  0.37280827     0.44410
C509        C  0.38537278  0.12378345  0.15970962    -0.04650
C510        C  0.36873580  0.10690776  0.13525169    -0.32080
C511        C  0.37597527  0.11328710  0.10366509     0.37170
C512        C  0.40040454  0.13658514  0.09627307    -0.05010
C513        C  0.41579549  0.15470031  0.12065958    -0.31980
C514        C  0.40802520  0.14879242  0.15227472     0.37080
H515        H  0.35097430  0.08773384  0.14068787     0.17450
O516        O  0.36057047  0.09519652  0.08038363    -0.59480
H517        H  0.43460205  0.17284285  0.11521235     0.17460
O518        O  0.42472970  0.16554739  0.17563170    -0.59570
H519        H  0.41161777  0.18585781  0.17931476     0.44460
H520        H  0.37471268  0.07546370  0.07730440     0.44410
C521        C  0.54014834  0.74873641  0.09166454    -0.04650
C522        C  0.52002994  0.75006278  0.06434322    -0.32080
C523        C  0.52241968  0.77661279  0.04310768     0.37170
C524        C  0.54508541  0.80225037  0.04914278    -0.05010
C525        C  0.56416698  0.80140741  0.07695689    -0.31980
C526        C  0.56170003  0.77526255  0.09813489     0.37080
H527        H  0.50378107  0.72964366  0.05850934     0.17450
O528        O  0.50378655  0.77642147  0.01593353    -0.59480
H529        H  0.58131956  0.82125150  0.08234305     0.17460
O530        O  0.58142857  0.77540797  0.12461648    -0.59570
H531        H  0.56780740  0.78581679  0.14135023     0.44460
H532        H  0.51756061  0.76482333  0.00003648     0.44410
C533        C  0.51495543  0.98984621  0.99518199    -0.04650
C534        C  0.53353418  0.01702444  0.48461107    -0.32080
C535        C  0.52055658  0.04913227  0.48551604     0.37170
C536        C  0.48860850  0.05470154  0.49762212    -0.05010
C537        C  0.47012579  0.02743577  0.00817375    -0.31980
C538        C  0.48291022  0.99538510  0.00692622     0.37080
H539        H  0.55832876  0.01340559  0.47558362     0.17450
O540        O  0.53948150  0.07477690  0.47478767    -0.59480
H541        H  0.44554863  0.03088145  0.01777594     0.17460
O542        O  0.46445223  0.96994393  0.01879523    -0.59570
H543        H  0.44964709  0.96303951  0.00120526     0.44460
H544        H  0.53459485  0.07612897  0.45183642     0.44410
C545        C  0.77500694  0.98474049  0.16700865    -0.04650
C546        C  0.77653425  0.99992751  0.19706723    -0.32080
C547        C  0.74952953  0.99794670  0.21796619     0.37170
C548        C  0.72073368  0.98081459  0.20877967    -0.05010
C549        C  0.71885271  0.96695966  0.17837473    -0.31980
C550        C  0.74547455  0.96895017  0.15755866     0.37080
H551        H  0.79927055  0.01152493  0.20505060     0.17450
O552        O  0.75224130  0.01091335  0.24784608    -0.59480
H553        H  0.69670902  0.95386455  0.17090951     0.17460
O554        O  0.74285887  0.95399956  0.12849869    -0.59570
H555        H  0.73492538  0.97150406  0.11404521     0.44460
H556        H  0.76177602  0.99295594  0.26086094     0.44410
C557        C  0.46878933  0.03554430  0.25958645    -0.04650
C558        C  0.49640252  0.05538320  0.26704083    -0.32080
C559        C  0.52846197  0.04213100  0.26807637     0.37170
C560        C  0.53345119  0.00840097  0.26166195    -0.05010
C561        C  0.50571787  0.98858082  0.25448918    -0.31980
C562        C  0.47373572  0.00179247  0.25350575     0.37080
H563        H  0.49319778  0.08141226  0.27200913     0.17450
O564        O  0.55456104  0.06234857  0.27566845    -0.59480
H565        H  0.50875725  0.96262250  0.24910985     0.17460
O566        O  0.44776181  0.98173099  0.24512276    -0.59570
H567        H  0.44101078  0.97076064  0.26496896     0.44460
H568        H  0.56097565  0.07289925  0.25550906     0.44410
C569        C  0.60518900  0.89383958  0.40818025    -0.04650
C570        C  0.63431828  0.91211958  0.40336089    -0.32080
C571        C  0.64382364  0.92164006  0.37292419     0.37170
C572        C  0.62467562  0.91205949  0.34654390    -0.05010
C573        C  0.59715887  0.89148967  0.35110848    -0.31980
C574        C  0.58704946  0.88279082  0.38156105     0.37080
H575        H  0.64883839  0.92074130  0.42335026     0.17450
O576        O  0.67161722  0.94066607  0.36926431    -0.59480
H577        H  0.58205584  0.88385939  0.33113334     0.17460
O578        O  0.55883922  0.86432015  0.38497697    -0.59570
H579        H  0.54026714  0.88017117  0.38287124     0.44460
H580        H  0.66468599  0.96342237  0.37479181     0.44410
C581        C  0.60576159  0.92893184  0.16097177    -0.04650
C582        C  0.57974154  0.94548510  0.14594595    -0.32080
C583        C  0.57308517  0.94020761  0.11405750     0.37170
C584        C  0.59322260  0.91870893  0.09636043    -0.05010
C585        C  0.61963635  0.90236296  0.11122396    -0.31980
C586        C  0.62575106  0.90707577  0.14356872     0.37080
H587        H  0.56441449  0.96266539  0.15903472     0.17450
O588        O  0.54747996  0.95708478  0.10012685    -0.59480
H589        H  0.63506725  0.88547821  0.09793043     0.17460
O590        O  0.65216856  0.89157657  0.15752479    -0.59570
H591        H  0.64356663  0.86982599  0.16425145     0.44460
H592        H  0.52715017  0.94491588  0.10607383     0.44410
O593        O  0.62284706  0.91671805  0.71420201    -0.57000
C594        C  0.62997935  0.92661866  0.81498071     0.75630
O595        O  0.67632289  0.99773399  0.74364285    -0.58160
C596        C  0.61318916  0.93765092  0.69384662     0.75600
C597        C  0.56690716  0.99314764  0.76112541     0.77990
Cd598      Cd  0.62909785  0.95948882  0.75529401     1.37460
O599        O  0.61988022  0.91230975  0.79001929    -0.57000
O600        O  0.56977757  0.96242129  0.75674089    -0.55810
C601        C  0.69258349  0.97477190  0.73014454     0.77950
O602        O  0.59378739  0.00939644  0.76416714    -0.58180
O603        O  0.64258267  0.95505319  0.81172426    -0.56630
O604        O  0.61004532  0.96727904  0.70281175    -0.56620
O605        O  0.68170970  0.94570386  0.73308271    -0.55790
O606        O  0.60913074  0.89860516  0.96479887    -0.57000
C607        C  0.58471313  0.91137284  0.56332661     0.75630
O608        O  0.51349577  0.93000253  0.49731400    -0.58160
C609        C  0.59207429  0.89037961  0.94071009     0.75600
C610        C  0.54995088  0.83062803  0.52780221     0.77990
Cd611      Cd  0.56316774  0.89418824  0.50213367     1.37460
O612        O  0.60628253  0.90403228  0.54258645    -0.57000
O613        O  0.57879128  0.84218041  0.52417028    -0.55810
C614        C  0.53029435  0.95658044  0.49585320     0.77950
O615        O  0.52619377  0.84626871  0.51478141    -0.58180
O616        O  0.55468646  0.91163089  0.55472036    -0.56630
O617        O  0.56255530  0.88112181  0.94578303    -0.56620
O618        O  0.56148663  0.95353959  0.99578220    -0.55790
O619        O  0.38316081  0.13028217  0.71644641    -0.57000
C620        C  0.37003377  0.10875084  0.81560813     0.75630
O621        O  0.33033549  0.04388627  0.73207239    -0.58160
C622        C  0.38170889  0.11172966  0.69213225     0.75600
C623        C  0.43551389  0.05082009  0.75731336     0.77990
Cd624      Cd  0.37260547  0.08330082  0.75233145     1.37460
O625        O  0.37482198  0.12772937  0.79225493    -0.57000
O626        O  0.43255180  0.08168142  0.75426425    -0.55810
C627        C  0.30757535  0.06551132  0.73136314     0.77950
O628        O  0.40877579  0.03423448  0.75814347    -0.58180
O629        O  0.36369306  0.07882689  0.80907806    -0.56630
O630        O  0.37725377  0.08131057  0.69660528    -0.56620
O631        O  0.31387447  0.09287342  0.74469607    -0.55790
O632        O  0.39332797  0.13805823  0.53984620    -0.57000
C633        C  0.40553095  0.14780559  0.94233547     0.75630
O634        O  0.47471448  0.19787043  0.51709684    -0.58160
C635        C  0.41234791  0.14025512  0.56382065     0.75600
C636        C  0.47337383  0.08808444  0.99920773     0.77990
Cd637      Cd  0.43818395  0.14986526  0.50266877     1.37460
O638        O  0.39181880  0.13740129  0.96723981    -0.57000
O639        O  0.44346076  0.09107413  0.00724842    -0.55810
C640        C  0.44990279  0.21509179  0.52565470     0.77950
O641        O  0.48861451  0.11473005  0.49277367    -0.58180
O642        O  0.43321892  0.16225640  0.94566831    -0.56630
O643        O  0.44273740  0.14559953  0.55885689    -0.56620
O644        O  0.42153351  0.20443415  0.51781613    -0.55790
O645        O  0.89073631  0.90132743  0.83945706    -0.57000
C646        C  0.91110106  0.89336115  0.94118204     0.75630
O647        O  0.97256903  0.84595244  0.86175693    -0.58160
C648        C  0.91090007  0.90162384  0.81638420     0.75600
C649        C  0.96829115  0.95499489  0.88180521     0.77990
Cd650      Cd  0.93565409  0.89240176  0.87818099     1.37470
O651        O  0.89113588  0.89578553  0.91799139    -0.57000
O652        O  0.93721145  0.95198131  0.87880457    -0.55810
C653        C  0.94779199  0.82724498  0.85644463     0.77950
O654        O  0.98496332  0.92836803  0.88334074    -0.58180
O655        O  0.94108363  0.88685790  0.93482139    -0.56630
O656        O  0.94142108  0.89989369  0.82300923    -0.56620
O657        O  0.92021670  0.83667969  0.86736361    -0.55790
O658        O  0.88409725  0.91049677  0.66221893    -0.57000
C659        C  0.87122433  0.93276183  0.56628216     0.75630
O660        O  0.83024439  0.99932807  0.65079140    -0.58160
C661        C  0.87856006  0.92644185  0.68759344     0.75600
C662        C  0.93379699  0.99011778  0.62800117     0.77990
Cd663      Cd  0.87000613  0.95866187  0.62912001     1.37470
O664        O  0.86718348  0.91343697  0.58946013    -0.57000
O665        O  0.92944235  0.96038591  0.63570982    -0.55810
C666        C  0.80583844  0.97966387  0.64884292     0.77950
O667        O  0.90785833  0.00654596  0.62133643    -0.58180
O668        O  0.87070866  0.96343965  0.57205944    -0.56630
O669        O  0.86898348  0.95590599  0.68515857    -0.56620
O670        O  0.81022498  0.95342038  0.63301995    -0.55790
O671        O  0.12148240  0.12600239  0.59056324    -0.57000
C672        C  0.11568918  0.10296358  0.68872572     0.75630
O673        O  0.09223250  0.02968215  0.62328746    -0.58160
C674        C  0.12753908  0.10916932  0.56592376     0.75600
C675        C  0.19303665  0.06804588  0.64997695     0.77990
Cd676      Cd  0.12795486  0.07981844  0.62687851     1.37460
O677        O  0.11561586  0.12316395  0.66578459    -0.57000
O678        O  0.18126055  0.09663741  0.64586095    -0.55810
C679        C  0.06551033  0.04633061  0.62196176     0.77950
O680        O  0.17700349  0.04392343  0.63798171    -0.58180
O681        O  0.11938089  0.07273471  0.68216173    -0.56630
O682        O  0.13783853  0.07989106  0.56970570    -0.56620
O683        O  0.06842825  0.07735454  0.62223309    -0.55790
O684        O  0.10613099  0.14524406  0.91735553    -0.57000
C685        C  0.08697136  0.13639434  0.81714386     0.75630
O686        O  0.01047277  0.11266782  0.88366721    -0.58160
C687        C  0.08682762  0.14758640  0.94087445     0.75600
C688        C  0.04952478  0.21329932  0.85692044     0.77990
Cd689      Cd  0.06079132  0.14778789  0.87799570     1.37470
O690        O  0.10557429  0.13262538  0.84124278    -0.57000
O691        O  0.07705439  0.20344462  0.86779694    -0.55810
C692        C  0.02666484  0.08584537  0.88096999     0.77950
O693        O  0.02457918  0.19477147  0.86166186    -0.58180
O694        O  0.05713733  0.14426137  0.82194651    -0.56630
O695        O  0.05653087  0.15318424  0.93487840    -0.56620
O696        O  0.05754205  0.08856182  0.87682099    -0.55790
O697        O  0.37376565  0.41789191  0.83674507    -0.57000
C698        C  0.38066038  0.43313167  0.93584291     0.75630
O699        O  0.40626755  0.51249481  0.87149751    -0.58160
C700        C  0.36773087  0.43614633  0.81310972     0.75600
C701        C  0.30539156  0.47661129  0.89801487     0.77990
Cd702      Cd  0.37070933  0.46253910  0.87614516     1.37460
O703        O  0.38396395  0.41558397  0.91106580    -0.57000
O704        O  0.31364453  0.44947622  0.88536748    -0.55810
C705        C  0.43307853  0.49599508  0.87213400     0.77950
O706        O  0.32615057  0.50010830  0.89583868    -0.58180
O707        O  0.37421119  0.46333232  0.93223139    -0.56630
O708        O  0.36043811  0.46595871  0.81915014    -0.56620
O709        O  0.43028083  0.46509400  0.87466894    -0.55790
O710        O  0.38833517  0.40652564  0.66169816    -0.57000
C711        C  0.40919478  0.40456330  0.56458949     0.75630
O712        O  0.48529815  0.43121231  0.63447521    -0.58160
C713        C  0.40302695  0.39722009  0.68667217     0.75600
C714        C  0.45131606  0.33093958  0.60595352     0.77990
Cd715      Cd  0.43496767  0.39629554  0.62630553     1.37460
O716        O  0.38945392  0.40423164  0.58789545    -0.57000
O717        O  0.42333876  0.33853609  0.61731964    -0.55810
C718        C  0.46919778  0.45810293  0.63233794     0.77950
O719        O  0.47416194  0.35234893  0.60889733    -0.58180
O720        O  0.43976710  0.40269304  0.57068149    -0.56630
O721        O  0.43151442  0.38443524  0.68334793    -0.56620
O722        O  0.43834128  0.45566858  0.62789260    -0.55790
O723        O  0.61834656  0.63148629  0.91649160    -0.57000
C724        C  0.62834634  0.61024619  0.81559195     0.75630
O725        O  0.66927464  0.54424692  0.89666176    -0.58160
C726        C  0.61650478  0.61186147  0.93983756     0.75600
C727        C  0.56388096  0.55482253  0.87453663     0.77990
Cd728      Cd  0.62784142  0.58538199  0.87890138     1.37470
O729        O  0.62726239  0.63001686  0.83897482    -0.57000
O730        O  0.56803664  0.58526916  0.87980285    -0.55810
C731        C  0.69206725  0.56549853  0.90058541     0.77950
O732        O  0.59001338  0.53765835  0.87095917    -0.58180
O733        O  0.63261305  0.58000188  0.82193576    -0.56630
O734        O  0.61876088  0.58137848  0.93394027    -0.56620
O735        O  0.68674098  0.59415536  0.88994064    -0.55790
O736        O  0.60617688  0.64668734  0.66557174    -0.57000
C737        C  0.58730405  0.64358688  0.56836633     0.75630
O738        O  0.51012833  0.61565658  0.63787074    -0.58160
C739        C  0.58870689  0.64954390  0.69026886     0.75600
C740        C  0.54325618  0.71751687  0.60963045     0.77990
Cd741      Cd  0.55918906  0.65198538  0.62881513     1.37460
O742        O  0.60520704  0.63950091  0.59284849    -0.57000
O743        O  0.57020007  0.71028854  0.62343455    -0.55810
C744        C  0.52600984  0.58932617  0.63158055     0.77950
O745        O  0.52078821  0.69553388  0.60962752    -0.58180
O746        O  0.55731401  0.65118250  0.57243350    -0.56630
O747        O  0.55847622  0.65715137  0.68657947    -0.56620
O748        O  0.55589467  0.59287326  0.62359344    -0.55790
O749        O  0.10580779  0.39487627  0.71444465    -0.57000
C750        C  0.08616615  0.40373153  0.81507842     0.75630
O751        O  0.01110497  0.42811584  0.74761856    -0.58160
C752        C  0.08625951  0.39285852  0.69087569     0.75600
C753        C  0.04756790  0.32744795  0.77478271     0.77990
Cd754      Cd  0.06072700  0.39280974  0.75373089     1.37460
O755        O  0.10577981  0.40491240  0.79162510    -0.57000
O756        O  0.07512032  0.33643871  0.76347449    -0.55810
C757        C  0.02761174  0.45487774  0.74887364     0.77950
O758        O  0.02342247  0.34724524  0.77107990    -0.58180
O759        O  0.05576853  0.39939927  0.80921028    -0.56630
O760        O  0.05597296  0.38733695  0.69677260    -0.56620
O761        O  0.05863316  0.45220898  0.75242353    -0.55790
O762        O  0.12389388  0.41470809  0.54199715    -0.57000
C763        C  0.11755187  0.43446269  0.94361062     0.75630
O764        O  0.09313300  0.51092905  0.50888023    -0.58160
C765        C  0.12691688  0.43264462  0.56647610     0.75600
C766        C  0.19378334  0.47353076  0.98321474     0.77990
Cd767      Cd  0.12848971  0.46072883  0.50483214     1.37470
O768        O  0.11496833  0.41572870  0.96750286    -0.57000
O769        O  0.18382403  0.44520079  0.99134543    -0.55810
C770        C  0.06617886  0.49463129  0.50779343     0.77950
O771        O  0.17581431  0.49796987  0.99117395    -0.58180
O772        O  0.12355528  0.46459894  0.94875857    -0.56630
O773        O  0.13460673  0.46265605  0.56244967    -0.56620
O774        O  0.06877828  0.46365526  0.50547389    -0.55790
O775        O  0.88945671  0.63871105  0.71648992    -0.57000
C776        C  0.91296634  0.64100368  0.81542041     0.75630
O777        O  0.98566889  0.61222216  0.74310037    -0.58160
C778        C  0.90468372  0.64815169  0.69194959     0.75600
C779        C  0.94993315  0.71336581  0.77304048     0.77990
Cd780      Cd  0.93634844  0.64774254  0.75280268     1.37470
O781        O  0.89242723  0.64117935  0.79250013    -0.57000
O782        O  0.92215171  0.70392615  0.76229248    -0.55810
C783        C  0.96963919  0.58560633  0.74766581     0.77950
O784        O  0.97419518  0.69374757  0.76905125    -0.58180
O785        O  0.94337708  0.64173569  0.80847330    -0.56630
O786        O  0.93370309  0.65948629  0.69609138    -0.56620
O787        O  0.93926216  0.58863546  0.75420265    -0.55790
O788        O  0.87392497  0.63103850  0.54091870    -0.57000
C789        C  0.88131358  0.61858906  0.94426026     0.75630
O790        O  0.90813898  0.53658636  0.51190581    -0.58160
C791        C  0.86758775  0.61335800  0.56480156     0.75600
C792        C  0.80871700  0.56407585  0.97831625     0.77990
Cd793      Cd  0.87167551  0.58554364  0.00230550     1.37460
O794        O  0.88526285  0.63465532  0.96985535    -0.57000
O795        O  0.81148604  0.59015535  0.99475679    -0.55810
C796        C  0.93473015  0.55231460  0.50645180     0.77950
O797        O  0.83374710  0.54520953  0.97730058    -0.58180
O798        O  0.87304704  0.58872775  0.94629046    -0.56630
O799        O  0.86024333  0.58344844  0.55930029    -0.56620
O800        O  0.93141561  0.58232221  0.49932044    -0.55790
C801        C  0.87130901  0.62628408  0.59751185    -0.04650
C802        C  0.89242409  0.65327429  0.60307512    -0.32080
C803        C  0.90230711  0.66183304  0.63384782     0.37170
C804        C  0.89028226  0.64394219  0.65985928    -0.05010
C805        C  0.86682978  0.61890700  0.65446449    -0.31980
C806        C  0.85769888  0.60970481  0.62363038     0.37080
H807        H  0.90303556  0.66656846  0.58342036     0.17450
O808        O  0.92413883  0.68740030  0.63817325    -0.59480
H809        H  0.85704020  0.60497339  0.67410280     0.17460
O810        O  0.83593008  0.58408569  0.61931065    -0.59570
H811        H  0.84926894  0.56379288  0.62224495     0.44460
H812        H  0.94623591  0.67813411  0.63317726     0.44410
C813        C  0.88718208  0.63246087  0.91304100    -0.04650
C814        C  0.86256476  0.62887389  0.88979362    -0.32080
C815        C  0.87007820  0.63293760  0.85783731     0.37170
C816        C  0.90281189  0.64012859  0.84886833    -0.05010
C817        C  0.92692594  0.64557356  0.87250108    -0.31980
C818        C  0.91924335  0.64190838  0.90441238     0.37080
H819        H  0.83782891  0.62121790  0.89635303     0.17450
O820        O  0.84559584  0.62846587  0.83565548    -0.59480
H821        H  0.95220171  0.65153346  0.86624269     0.17460
O822        O  0.94399385  0.64420008  0.92663750    -0.59570
H823        H  0.94364353  0.66748601  0.93386170     0.44460
H824        H  0.84507235  0.60438929  0.83147890     0.44410
C825        C  0.96823552  0.53722237  0.50794656    -0.04650
C826        C  0.99600403  0.55658195  0.00023322    -0.32080
C827        C  0.02805799  0.54343343  0.00079003     0.37170
C828        C  0.03298126  0.51020529  0.50889148    -0.05010
C829        C  0.00532193  0.49090003  0.51695177    -0.31980
C830        C  0.97324699  0.50408780  0.51655407     0.37080
H831        H  0.99294460  0.58210437  0.99339005     0.17450
O832        O  0.05413707  0.56291321  0.99192874    -0.59480
H833        H  0.00851013  0.46530579  0.52351524     0.17460
O834        O  0.94713968  0.48438541  0.52488572    -0.59570
H835        H  0.94074923  0.47252715  0.50522825     0.44460
H836        H  0.06066500  0.57515763  0.01132459     0.44410
C837        C  0.98483523  0.55229627  0.74606554    -0.04650
C838        C  0.96468646  0.52445226  0.75105079    -0.32080
C839        C  0.97795766  0.49259218  0.75121394     0.37170
C840        C  0.01210972  0.48792562  0.74665239    -0.05010
C841        C  0.03219139  0.51564651  0.74096464    -0.31980
C842        C  0.01887280  0.54754674  0.74061481     0.37080
H843        H  0.93841063  0.52729142  0.75528346     0.17450
O844        O  0.95748759  0.46641985  0.75729070    -0.59480
H845        H  0.05850738  0.51267641  0.73702181     0.17460
O846        O  0.03941681  0.57376754  0.73496290    -0.59570
H847        H  0.04898866  0.57968657  0.75586341     0.44460
H848        H  0.94780721  0.46023170  0.73650725     0.44410
C849        C  0.11737007  0.42042993  0.59775997    -0.04650
C850        C  0.14004519  0.40480858  0.61793437    -0.32080
C851        C  0.13018670  0.39446894  0.64817153     0.37170
C852        C  0.09725696  0.39949773  0.65818932    -0.05010
C853        C  0.07460688  0.41427069  0.63735786    -0.31980
C854        C  0.08455266  0.42507670  0.60763443     0.37080
H855        H  0.16537637  0.40106165  0.61043720     0.17450
O856        O  0.15289321  0.37977836  0.66773742    -0.59480
H857        H  0.04930942  0.41876934  0.64462016     0.17460
O858        O  0.06197868  0.44042807  0.58832956    -0.59570
H859        H  0.06396475  0.46425280  0.59339870     0.44460
H860        H  0.15049511  0.35578667  0.66370449     0.44410
C861        C  0.09740218  0.40764817  0.84793445    -0.04650
C862        C  0.12395175  0.42863804  0.85490778    -0.32080
C863        C  0.13177898  0.43636261  0.88628108     0.37170
C864        C  0.11321531  0.42255966  0.91107405    -0.05010
C865        C  0.08835090  0.39960436  0.90418280    -0.31980
C866        C  0.08002685  0.39242605  0.87281295     0.37080
H867        H  0.13761219  0.44033867  0.83604928     0.17450
O868        O  0.15688024  0.45828711  0.89249628    -0.59480
H869        H  0.07412433  0.38861725  0.92305794     0.17460
O870        O  0.05480679  0.37058416  0.86668347    -0.59570
H871        H  0.03410857  0.38333240  0.86976164     0.44460
H872        H  0.17759218  0.44586708  0.88852696     0.44410
C873        C  0.72170517  0.55884762  0.92005964    -0.04650
C874        C  0.75313392  0.55660841  0.90640637    -0.32080
C875        C  0.78163146  0.55558920  0.92555979     0.37170
C876        C  0.77890996  0.55803763  0.95876534    -0.05010
C877        C  0.74744016  0.55996305  0.97232768    -0.31980
C878        C  0.71899684  0.55974227  0.95324581     0.37080
H879        H  0.75564067  0.55672951  0.88092623     0.17450
O880        O  0.81214467  0.55530723  0.91149984    -0.59480
H881        H  0.74495006  0.56257231  0.99770537     0.17460
O882        O  0.68864942  0.56297275  0.96718552    -0.59570
H883        H  0.68074819  0.54009149  0.97039777     0.44460
H884        H  0.81769569  0.53166063  0.90878445     0.44410
C885        C  0.62227171  0.62100944  0.78258825    -0.04650
C886        C  0.61014619  0.59765100  0.76078871    -0.32080
C887        C  0.59960935  0.60711143  0.73070523     0.37170
C888        C  0.60172845  0.64025053  0.72148720    -0.05010
C889        C  0.61479010  0.66368549  0.74260284    -0.31980
C890        C  0.62509737  0.65423953  0.77307066     0.37080
H891        H  0.60739912  0.57205521  0.76750604     0.17450
O892        O  0.58658843  0.58380036  0.71055867    -0.59480
H893        H  0.61650957  0.68929663  0.73565862     0.17460
O894        O  0.63733698  0.67770692  0.79342179    -0.59570
H895        H  0.66166119  0.67729865  0.79035374     0.44460
H896        H  0.56243323  0.58385791  0.71469218     0.44410
C897        C  0.59966790  0.63849996  0.53631170    -0.04650
C898        C  0.58992927  0.66019657  0.51220384    -0.32080
C899        C  0.59647185  0.65275429  0.98050666     0.37170
C900        C  0.61222402  0.62290069  0.97275342    -0.05010
C901        C  0.62242360  0.60168094  0.99712291    -0.31980
C902        C  0.61685054  0.60958864  0.52870141     0.37080
H903        H  0.57633292  0.68245317  0.51793914     0.17450
O904        O  0.58589328  0.67391227  0.95738327    -0.59480
H905        H  0.63388928  0.57826390  0.99173889     0.17460
O906        O  0.62550729  0.58743463  0.55169682    -0.59570
H907        H  0.64874367  0.59290198  0.55729854     0.44460
H908        H  0.56299147  0.66680945  0.95220141     0.44410
C909        C  0.48485312  0.49107444  0.63434417    -0.04650
C910        C  0.46565310  0.51831035  0.64379334    -0.32080
C911        C  0.47867416  0.55034326  0.64363585     0.37170
C912        C  0.51129303  0.55578727  0.63325490    -0.05010
C913        C  0.53061832  0.52838464  0.62429162    -0.31980
C914        C  0.51776247  0.49632254  0.62497605     0.37080
H915        H  0.44027442  0.51478670  0.65124887     0.17450
O916        O  0.45904141  0.57607533  0.65314906    -0.59480
H917        H  0.55581797  0.53175187  0.61627310     0.17460
O918        O  0.53697720  0.47060711  0.61465165    -0.59570
H919        H  0.55023111  0.46390278  0.63333162     0.44460
H920        H  0.46255107  0.57784253  0.67631312     0.44410
C921        C  0.22255996  0.47639137  0.96180192    -0.04650
C922        C  0.22683157  0.45113171  0.93943148    -0.32080
C923        C  0.25184717  0.45249337  0.91693224     0.37170
C924        C  0.27450706  0.47897953  0.91695360    -0.05010
C925        C  0.26991657  0.50484648  0.93893011    -0.31980
C926        C  0.24393096  0.50381536  0.96107618     0.37080
H927        H  0.21011906  0.43021139  0.93890414     0.17450
O928        O  0.25434842  0.42709012  0.89555141    -0.59480
H929        H  0.28714879  0.52530390  0.93971655     0.17460
O930        O  0.24031867  0.52912478  0.98236819    -0.59570
H931        H  0.25360252  0.52253926  0.00107487     0.44460
H932        H  0.24192753  0.43457932  0.87662816     0.44410
C933        C  0.46622731  0.51155316  0.87072948    -0.04650
C934        C  0.47030560  0.54443917  0.88023416    -0.32080
C935        C  0.50181117  0.55885869  0.88140846     0.37170
C936        C  0.53011760  0.54036504  0.87282370    -0.05010
C937        C  0.52587530  0.50769006  0.86257837    -0.31980
C938        C  0.49437762  0.49324807  0.86155784     0.37080
H939        H  0.44909291  0.55883365  0.88762275     0.17450
O940        O  0.50464237  0.59069625  0.89215557    -0.59480
H941        H  0.54705990  0.49313936  0.85541074     0.17460
O942        O  0.49133984  0.46141242  0.85081872    -0.59570
H943        H  0.49740905  0.44737846  0.86907959     0.44460
H944        H  0.50039298  0.60467560  0.87340623     0.44410
C945        C  0.38883051  0.40375079  0.71825315    -0.04650
C946        C  0.37225468  0.43369067  0.72339044    -0.32080
C947        C  0.36371299  0.44390683  0.75393243     0.37170
C948        C  0.37119998  0.42376735  0.78014085    -0.05010
C949        C  0.38559640  0.39266368  0.77464095    -0.31980
C950        C  0.39480379  0.38281962  0.74407108     0.37080
H951        H  0.36765026  0.45024536  0.70382848     0.17450
O952        O  0.34980053  0.47447127  0.75791525    -0.59480
H953        H  0.39130939  0.37653342  0.79425103     0.17460
O954        O  0.40970112  0.35277448  0.73968314    -0.59570
H955        H  0.43323538  0.35618222  0.74564459     0.44460
H956        H  0.32557253  0.47077140  0.75647217     0.44410
C957        C  0.38438613  0.42007220  0.96783366    -0.04650
C958        C  0.36307559  0.43164821  0.99156731    -0.32080
C959        C  0.36946929  0.42486304  0.52334080     0.37170
C960        C  0.39807574  0.40716013  0.53161280    -0.05010
C961        C  0.41828306  0.39398181  0.50769181    -0.31980
C962        C  0.41136179  0.40001693  0.97589414     0.37080
H963        H  0.34209949  0.44707795  0.98549669     0.17450
O964        O  0.34927384  0.43802700  0.54609360    -0.59480
H965        H  0.44021995  0.37992075  0.51371416     0.17460
O966        O  0.43285196  0.38894400  0.95321163    -0.59570
H967        H  0.42476419  0.36663269  0.94738833     0.44460
H968        H  0.33143242  0.42152447  0.54897053     0.44410
C969        C  0.04802909  0.24311935  0.83671838    -0.04650
C970        C  0.01834433  0.26051738  0.83184160    -0.32080
C971        C  0.01706537  0.28743681  0.81089211     0.37170
C972        C  0.04553167  0.29667148  0.79372516    -0.05010
C973        C  0.07475299  0.27851192  0.79814805    -0.31980
C974        C  0.07630183  0.25244158  0.81940406     0.37080
H975        H  0.99625614  0.25355635  0.84460261     0.17450
O976        O  0.98828594  0.30513885  0.80832979    -0.59480
H977        H  0.09715411  0.28504813  0.78566486     0.17460
O978        O  0.10589799  0.23621645  0.82294372    -0.59570
H979        H  0.10513405  0.21771862  0.80756530     0.44460
H980        H  0.97548769  0.29407834  0.79126015     0.44410
C981        C  0.09809494  0.14140580  0.97365330    -0.04650
C982        C  0.07503877  0.12871508  0.99511090    -0.32080
C983        C  0.08493133  0.11839996  0.52506636     0.37170
C984        C  0.11816867  0.12134706  0.53451897    -0.05010
C985        C  0.14138102  0.13471079  0.51363922    -0.31980
C986        C  0.13149224  0.14479304  0.98324367     0.37080
H987        H  0.04937603  0.12539232  0.98820314     0.17450
O988        O  0.06197195  0.10464912  0.54482728    -0.59480
H989        H  0.16707422  0.13703549  0.52077094     0.17460
O990        O  0.15462155  0.15756917  0.96310357    -0.59570
H991        H  0.15359744  0.18177560  0.96637775     0.45040
H992        H  0.06326237  0.08056743  0.54080286     0.44410
C993        C  0.11164917  0.11366334  0.72170749    -0.04650
C994        C  0.09283255  0.14175164  0.72847922    -0.32080
C995        C  0.08594885  0.15039244  0.75977026     0.37170
C996        C  0.09850623  0.13108122  0.78472265    -0.05010
C997        C  0.11917587  0.10432176  0.77804990    -0.31980
C998        C  0.12539235  0.09519195  0.74675701     0.37080
H999        H  0.08226071  0.15625071  0.70950429     0.17450
O1000       O  0.06587494  0.17697945  0.76576969    -0.59480
H1001       H  0.12901009  0.08936081  0.79705496     0.17460
O1002       O  0.14494768  0.06820727  0.74091526    -0.59570
H1003       H  0.13019793  0.04886304  0.74353643     0.44460
H1004       H  0.07898490  0.19663792  0.75977190     0.44410
C1005       C  0.96764349  0.00429758  0.62638104    -0.04650
C1006       C  0.97287073  0.03428050  0.61081087    -0.32080
C1007       C  0.00477225  0.04756314  0.60816722     0.37170
C1008       C  0.03224349  0.03095309  0.62137026    -0.05010
C1009       C  0.02714668  0.00074548  0.63649280    -0.31980
C1010       C  0.99524468  0.98756123  0.63935940     0.37080
H1011       H  0.95221608  0.04741181  0.60037190     0.17450
O1012       O  0.00880900  0.07687216  0.59262195    -0.59480
H1013       H  0.04782387  0.98782547  0.64714062     0.17460
O1014       O  0.99140287  0.95846911  0.65532128    -0.59570
H1015       H  0.98715696  0.96497539  0.67756432     0.44460
H1016       H  0.00766949  0.07114215  0.56982911     0.44410
C1017       C  0.95199244  0.74436903  0.79190764    -0.04650
C1018       C  0.92244236  0.76166820  0.79724123    -0.32080
C1019       C  0.92086245  0.78750102  0.81896218     0.37170
C1020       C  0.94947547  0.79762640  0.83570075    -0.05010
C1021       C  0.97953699  0.78130375  0.82967210    -0.31980
C1022       C  0.98086885  0.75458567  0.80823831     0.37080
H1023       H  0.89979421  0.75459680  0.78515970     0.17450
O1024       O  0.89118855  0.80350992  0.82264518    -0.59480
H1025       H  0.00192274  0.78900844  0.84182628     0.17460
O1026       O  0.01020273  0.73814835  0.80424790    -0.59570
H1027       H  0.02135274  0.74954347  0.78655917     0.44460
H1028       H  0.87859000  0.79001923  0.83794528     0.44410
C1029       C  0.98371220  0.98823837  0.88304185    -0.04650
C1030       C  0.96337782  0.01629292  0.88596960    -0.32080
C1031       C  0.97677172  0.04818899  0.88565010     0.37170
C1032       C  0.01116498  0.05263651  0.88235959    -0.05010
C1033       C  0.03150243  0.02453641  0.87993433    -0.31980
C1034       C  0.01815097  0.99269025  0.88041660     0.37080
H1035       H  0.93681936  0.01358913  0.88831082     0.17450
O1036       O  0.95595642  0.07470446  0.88867102    -0.59480
H1037       H  0.05805237  0.02713322  0.87742105     0.17460
O1038       O  0.03898970  0.96621821  0.87718636    -0.59570
H1039       H  0.04687739  0.96135129  0.89890112     0.44460
H1040       H  0.94818108  0.07949125  0.86690341     0.44410
C1041       C  0.90090076  0.90068365  0.97394840    -0.04650
C1042       C  0.86966988  0.89120901  0.98539826    -0.32080
C1043       C  0.85954469  0.90065790  0.51593374     0.37170
C1044       C  0.88031919  0.92070641  0.53466902    -0.05010
C1045       C  0.91128133  0.93014022  0.52311071    -0.31980
C1046       C  0.92187147  0.91988425  0.99335269     0.37080
H1047       H  0.85320287  0.87658026  0.97069275     0.17450
O1048       O  0.82923618  0.89085418  0.52691047    -0.59480
H1049       H  0.92748935  0.94556922  0.53736649     0.17460
O1050       O  0.95201293  0.93058408  0.98263852    -0.59570
H1051       H  0.96839511  0.91488247  0.99147743     0.44460
H1052       H  0.81360818  0.90834207  0.52017610     0.44410
C1053       C  0.90032385  0.90363737  0.78303808    -0.04650
C1054       C  0.92390392  0.89749792  0.75930380    -0.32080
C1055       C  0.91606861  0.90194204  0.72748174     0.37170
C1056       C  0.88438024  0.91290224  0.71901304    -0.05010
C1057       C  0.86023500  0.91744311  0.74235771    -0.31980
C1058       C  0.86790013  0.91256483  0.77425348     0.37080
H1059       H  0.94893997  0.89026809  0.76541971     0.17450
O1060       O  0.94046856  0.89884919  0.70522114    -0.59480
H1061       H  0.83579139  0.92625354  0.73592027     0.17460
O1062       O  0.84393629  0.91784012  0.79655638    -0.59570
H1063       H  0.84481625  0.94180371  0.80125558     0.44460
H1064       H  0.93936031  0.87554784  0.69810871     0.44410
C1065       C  0.45268998  0.24422301  0.54683465    -0.04650
C1066       C  0.47753324  0.26812369  0.54328327    -0.32080
C1067       C  0.47859744  0.29603020  0.56330670     0.37170
C1068       C  0.45536544  0.29958018  0.58803861    -0.05010
C1069       C  0.43174763  0.27469387  0.59231470    -0.31980
C1070       C  0.43005300  0.24757421  0.57194480     0.37080
H1071       H  0.49524542  0.26585026  0.52425965     0.17450
O1072       O  0.50137720  0.32030700  0.55751360    -0.59480
H1073       H  0.41363053  0.27673534  0.61102892     0.17460
O1074       O  0.40646939  0.22390985  0.57730798    -0.59570
H1075       H  0.38576597  0.23270824  0.56789581     0.44460
H1076       H  0.49040457  0.33532600  0.54227918     0.44410
C1077       C  0.27634559  0.06085756  0.71333821    -0.04650
C1078       C  0.27636398  0.04257469  0.68489542    -0.32080
C1079       C  0.24929807  0.04402414  0.66382115     0.37170
C1080       C  0.22183465  0.06382778  0.67121335    -0.05010
C1081       C  0.22135960  0.08090685  0.70014857    -0.31980
C1082       C  0.24805217  0.07935572  0.72116428     0.37080
H1083       H  0.29814945  0.02872520  0.67810998     0.17450
O1084       O  0.25071203  0.02752997  0.63550057    -0.59480
H1085       H  0.20012895  0.09587132  0.70643361     0.17460
O1086       O  0.24665505  0.09698852  0.74887218    -0.59570
H1087       H  0.23722708  0.08154873  0.76454808     0.44460
H1088       H  0.26090760  0.04331150  0.62058197     0.44410
C1089       C  0.39134912  0.14053761  0.91082499    -0.04650
C1090       C  0.37870294  0.10885735  0.90510221    -0.32080
C1091       C  0.37023724  0.09860645  0.87450326     0.37170
C1092       C  0.37373549  0.12044739  0.84881692    -0.05010
C1093       C  0.38435427  0.15294154  0.85497676    -0.31980
C1094       C  0.39354822  0.16288826  0.88562533     0.37080
H1095       H  0.37720256  0.09121366  0.92420068     0.17450
O1096       O  0.36059411  0.06651273  0.86987093    -0.59480
H1097       H  0.38699742  0.17031843  0.83579648     0.17460
O1098       O  0.40457337  0.19446183  0.89072910    -0.59570
H1099       H  0.42819919  0.19426836  0.88447160     0.44460
H1100       H  0.33625653  0.06655733  0.87280827     0.44410
C1101       C  0.38537274  0.12378348  0.65970962    -0.04650
C1102       C  0.36873575  0.10690780  0.63525169    -0.32080
C1103       C  0.37597522  0.11328715  0.60366509     0.37170
C1104       C  0.40040450  0.13658518  0.59627307    -0.05010
C1105       C  0.41579545  0.15470034  0.62065958    -0.31980
C1106       C  0.40802516  0.14879246  0.65227473     0.37080
H1107       H  0.35097426  0.08773387  0.64068788     0.17450
O1108       O  0.36057041  0.09519657  0.58038363    -0.59480
H1109       H  0.43460201  0.17284288  0.61521235     0.17460
O1110       O  0.42472967  0.16554741  0.67563171    -0.59570
H1111       H  0.41161773  0.18585784  0.67931477     0.44460
H1112       H  0.37471262  0.07546374  0.57730440     0.44410
C1113       C  0.54014824  0.74873641  0.59166438    -0.04650
C1114       C  0.52002985  0.75006282  0.56434305    -0.32080
C1115       C  0.52241961  0.77661285  0.54310755     0.37170
C1116       C  0.54508536  0.80225042  0.54914269    -0.05010
C1117       C  0.56416690  0.80140742  0.57695681    -0.31980
C1118       C  0.56169993  0.77526254  0.59813478     0.37080
H1119       H  0.50378098  0.72964371  0.55850913     0.17450
O1120       O  0.50378651  0.77642157  0.51593338    -0.59480
H1121       H  0.58131949  0.82125150  0.58234300     0.17460
O1122       O  0.58142845  0.77540792  0.62461638    -0.59570
H1123       H  0.56780727  0.78581672  0.64135013     0.44460
H1124       H  0.51756057  0.76482345  0.50003633     0.44410
C1125       C  0.51495544  0.98984626  0.49518198    -0.04650
C1126       C  0.53353420  0.01702439  0.98461111    -0.32080
C1127       C  0.52055660  0.04913222  0.98551608     0.37170
C1128       C  0.48860850  0.05470149  0.99762211    -0.05010
C1129       C  0.47012581  0.02743582  0.50817379    -0.31980
C1130       C  0.48291024  0.99538515  0.50692625     0.37080
H1131       H  0.55832879  0.01340554  0.97558369     0.17450
O1132       O  0.53948154  0.07477685  0.97478775    -0.59480
H1133       H  0.44554866  0.03088150  0.51777602     0.17460
O1134       O  0.46445228  0.96994398  0.51879530    -0.59570
H1135       H  0.44964711  0.96303955  0.50120536     0.44460
H1136       H  0.53459493  0.07612893  0.95183649     0.44410
C1137       C  0.77500695  0.98474047  0.66700864    -0.04650
C1138       C  0.77653427  0.99992749  0.69706723    -0.32080
C1139       C  0.74952955  0.99794668  0.71796618     0.37170
C1140       C  0.72073369  0.98081457  0.70877966    -0.05010
C1141       C  0.71885272  0.96695965  0.67837472    -0.31980
C1142       C  0.74547457  0.96895016  0.65755865     0.37080
H1143       H  0.79927057  0.01152490  0.70505060     0.17450
O1144       O  0.75224133  0.01091332  0.74784608    -0.59480
H1145       H  0.69670903  0.95386454  0.67090950     0.17460
O1146       O  0.74285888  0.95399956  0.62849868    -0.59570
H1147       H  0.73492540  0.97150406  0.61404520     0.44460
H1148       H  0.76177604  0.99295590  0.76086093     0.44410
C1149       C  0.46878935  0.03554430  0.75958645    -0.04650
C1150       C  0.49640253  0.05538320  0.76704087    -0.32080
C1151       C  0.52846198  0.04213099  0.76807642     0.37170
C1152       C  0.53345121  0.00840098  0.76166196    -0.05010
C1153       C  0.50571789  0.98858083  0.75448915    -0.31980
C1154       C  0.47373574  0.00179248  0.75350572     0.37080
H1155       H  0.49319778  0.08141224  0.77200920     0.17450
O1156       O  0.55456104  0.06234855  0.77566855    -0.59480
H1157       H  0.50875727  0.96262251  0.74910979     0.17460
O1158       O  0.44776184  0.98173101  0.74512269    -0.59570
H1159       H  0.44101080  0.97076063  0.76496887     0.44460
H1160       H  0.56097566  0.07289927  0.75550918     0.44410
C1161       C  0.60518902  0.89383954  0.90818026    -0.04650
C1162       C  0.63431829  0.91211956  0.90336090    -0.32080
C1163       C  0.64382366  0.92164005  0.87292421     0.37170
C1164       C  0.62467565  0.91205947  0.84654391    -0.05010
C1165       C  0.59715891  0.89148964  0.85110849    -0.31980
C1166       C  0.58704949  0.88279078  0.88156106     0.37080
H1167       H  0.64883840  0.92074129  0.92335028     0.17450
O1168       O  0.67161723  0.94066607  0.86926434    -0.59480
H1169       H  0.58205588  0.88385936  0.83113334     0.17460
O1170       O  0.55883926  0.86432010  0.88497697    -0.59570
H1171       H  0.54026718  0.88017111  0.88287123     0.44460
H1172       H  0.66468599  0.96342237  0.87479184     0.44410
C1173       C  0.60576159  0.92893188  0.66097178    -0.04650
C1174       C  0.57974158  0.94548518  0.64594594    -0.32080
C1175       C  0.57308521  0.94020769  0.61405749     0.37170
C1176       C  0.59322262  0.91870898  0.59636043    -0.05010
C1177       C  0.61963634  0.90236297  0.61122397    -0.31980
C1178       C  0.62575103  0.90707577  0.64356873     0.37080
H1179       H  0.56441454  0.96266549  0.65903470     0.17450
O1180       O  0.54748003  0.95708489  0.60012683    -0.59480
H1181       H  0.63506721  0.88547819  0.59793045     0.17460
O1182       O  0.65216851  0.89157654  0.65752481    -0.59570
H1183       H  0.64356655  0.86982596  0.66425147     0.44460
H1184       H  0.52715022  0.94491603  0.60607380     0.44410
loop_ 
_geom_bond_atom_site_label_1 
_geom_bond_atom_site_label_2 
_geom_bond_distance 
_geom_bond_site_symmetry_2 
_ccdc_geom_bond_type 
O1            C4   1.272       .  A
O1           Cd6   2.462       .  S
C2           O11   1.269       .  A
C2            O7   1.268       .  A
C2          C572   1.479       .  S
O3            C9   1.274       .  A
O3           Cd6   2.510       .  S
C4           O12   1.265       .  A
C4          C581   1.463       .  S
C5           O10   1.275   1_565  A
C5            O8   1.265       .  A
C5          C560   1.487   1_565  S
Cd6          O13   2.393       .  S
Cd6          O12   2.369       .  S
Cd6          O11   2.454       .  S
Cd6           O7   2.448       .  S
Cd6          O10   2.505   1_565  S
Cd6           O8   2.400       .  S
C9           O13   1.265       .  A
C9          C548   1.477       .  S
O14          C17   1.271       .  A
O14        Cd611   2.451       .  S
C15          O24   1.265       .  A
C15          O20   1.274       .  A
C15         C584   1.467       .  S
O16          C22   1.275       .  A
O16         Cd19   2.486   1_556  S
C17          O25   1.269       .  A
C17         C569   1.485       .  S
C18          O23   1.275       .  A
C18          O21   1.266       .  A
C18         C524   1.480       .  S
Cd19         O24   2.358       .  S
Cd19         O20   2.467       .  S
Cd19         O23   2.512       .  S
Cd19         O21   2.394       .  S
Cd19        O606   2.451   1_554  S
Cd19        O618   2.425   1_554  S
Cd19        O617   2.440   1_554  S
C22         O618   1.266       .  A
C22         C533   1.485       .  S
O25        Cd611   2.440       .  S
O26         C614   1.266       .  A
O26        Cd611   2.425       .  S
O27          C30   1.273       .  A
O27         Cd32   2.481       .  S
C28          O37   1.269       .  A
C28          O33   1.271       .  A
C28         C500   1.488       .  S
O29          C35   1.271       .  A
O29         Cd32   2.485       .  S
C30          O38   1.262       .  A
C30         C509   1.467       .  S
C31          O36   1.273       .  A
C31          O34   1.265       .  A
C31         C557   1.483       .  S
Cd32         O39   2.424       .  S
Cd32         O38   2.367       .  S
Cd32         O37   2.437       .  S
Cd32         O33   2.465       .  S
Cd32         O36   2.482       .  S
Cd32         O34   2.423       .  S
C35          O39   1.268       .  A
C35         C485   1.482       .  S
O40          C43   1.272       .  A
O40         Cd45   2.454       .  S
C41          O50   1.269       .  A
C41          O46   1.267       .  A
C41         C497   1.477       .  S
O42          C48   1.275       .  A
O42         Cd45   2.514       .  S
C43          O51   1.265       .  A
C43         C512   1.466       .  S
C44          O47   1.263       .  A
C44         O641   1.275       .  A
C44         C536   1.489       .  S
Cd45         O52   2.399       .  S
Cd45         O51   2.391       .  S
Cd45         O49   2.522   1_554  S
Cd45        O642   2.473   1_554  S
Cd45        O638   2.444   1_554  S
Cd45        O639   2.403       .  S
O46        Cd637   2.444       .  S
O47        Cd637   2.403       .  S
C48          O52   1.267       .  A
C48         C473   1.483       .  S
O49         C636   1.275       .  A
O50        Cd637   2.473       .  S
O53          C56   1.275       .  A
O53         Cd58   2.467       .  S
C54          O63   1.269       .  A
C54          O59   1.271       .  A
C54         C449   1.477       .  S
O55          C61   1.274       .  A
O55         Cd58   2.501       .  S
C56          O64   1.265       .  A
C56         C461   1.475       .  S
C57          O62   1.275       .  A
C57          O60   1.267       .  A
C57         C437   1.486       .  S
Cd58         O65   2.386       .  S
Cd58         O64   2.368       .  S
Cd58         O63   2.417       .  S
Cd58         O59   2.473       .  S
Cd58         O62   2.476       .  S
Cd58         O60   2.417       .  S
C61          O65   1.267       .  A
C61         C428   1.486       .  S
O66          C69   1.272       .  A
O66         Cd71   2.474       .  S
C67          O76   1.267       .  A
C67          O72   1.270       .  A
C67         C452   1.470       .  S
O68          C74   1.270       .  A
O68         Cd71   2.479       .  S
C69          O77   1.261       .  A
C69         C464   1.459       .  S
C70          O75   1.273   1_565  A
C70          O73   1.263       .  A
C70         C413   1.485   1_565  S
Cd71         O78   2.430       .  S
Cd71         O77   2.375       .  S
Cd71         O76   2.423       .  S
Cd71         O72   2.482       .  S
Cd71         O75   2.495   1_565  S
Cd71         O73   2.416       .  S
C74          O78   1.268       .  A
C74         C545   1.481       .  S
O79          C82   1.268       .  A
O79         Cd84   2.442       .  S
C80          O89   1.265       .  A
C80          O85   1.273       .  A
C80         C401   1.469       .  S
O81          C87   1.275       .  A
O81         Cd84   2.497       .  S
C82          O90   1.269       .  A
C82         C392   1.468       .  S
C83          O88   1.275       .  A
C83          O86   1.266       .  A
C83         C488   1.477       .  S
Cd84         O91   2.413       .  S
Cd84         O90   2.454       .  S
Cd84         O89   2.385       .  S
Cd84         O85   2.456       .  S
Cd84         O88   2.503       .  S
Cd84         O86   2.392       .  S
C87          O91   1.264       .  A
C87         C416   1.481       .  S
O92          C95   1.270       .  A
O92         Cd97   2.472       .  S
C93         O102   1.264       .  A
C93          O98   1.273       .  A
C93         C404   1.466       .  S
O94         C100   1.275       .  A
O94         Cd97   2.495       .  S
C95         O103   1.269       .  A
C95         C389   1.480       .  S
C96         O101   1.274       .  A
C96          O99   1.267       .  A
C96         C377   1.486       .  S
Cd97        O104   2.406       .  S
Cd97        O103   2.423       .  S
Cd97        O102   2.379       .  S
Cd97         O98   2.467       .  S
Cd97        O101   2.501       .  S
Cd97         O99   2.393       .  S
C100        O104   1.265       .  A
C100        C440   1.487       .  S
O105        C108   1.270       .  A
O105       Cd110   2.459       .  S
C106        O115   1.262       .  A
C106        O111   1.272       .  A
C106        C365   1.463       .  S
O107        C113   1.274       .  A
O107       Cd110   2.492       .  S
C108        O116   1.270       .  A
C108        C356   1.488       .  S
C109        O114   1.273       .  A
C109        O112   1.267       .  A
C109        C332   1.489       .  S
Cd110       O117   2.409       .  S
Cd110       O116   2.450       .  S
Cd110       O115   2.377       .  S
Cd110       O111   2.474       .  S
Cd110       O114   2.502       .  S
Cd110       O112   2.399       .  S
C113        O117   1.264       .  A
C113        C341   1.482       .  S
O118        C121   1.269       .  A
O118       Cd123   2.446       .  S
C119        O128   1.263       .  A
C119        O124   1.271       .  A
C119        C368   1.468       .  S
O120        C126   1.274       .  A
O120       Cd123   2.499       .  S
C121        O129   1.270       .  A
C121        C353   1.479       .  S
C122        O127   1.272       .  A
C122        O125   1.268       .  A
C122        C476   1.487       .  S
Cd123       O130   2.413       .  S
Cd123       O129   2.468       .  S
Cd123       O128   2.378       .  S
Cd123       O124   2.470       .  S
Cd123       O127   2.496       .  S
Cd123       O125   2.417       .  S
C126        O130   1.263       .  A
C126        C317   1.481       .  S
O131        C134   1.274       .  A
O131       Cd136   2.480       .  S
C132        O141   1.269       .  A
C132        O137   1.271       .  A
C132        C293   1.484       .  S
O133        C139   1.271       .  A
O133       Cd136   2.480       .  S
C134        O142   1.264       .  A
C134        C308   1.472       .  S
C135        O140   1.274       .  A
C135        O138   1.265       .  A
C135        C344   1.486       .  S
Cd136       O143   2.448       .  S
Cd136       O142   2.366       .  S
Cd136       O141   2.428       .  S
Cd136       O137   2.482       .  S
Cd136       O140   2.486       .  S
Cd136       O138   2.416       .  S
C139        O143   1.267       .  A
C139        C281   1.476       .  S
O144        C147   1.269       .  A
O144       Cd149   2.458       .  S
C145        O154   1.262       .  A
C145        O150   1.272       .  A
C145        C305   1.461       .  S
O146        C152   1.274       .  A
O146       Cd149   2.501       .  S
C147        O155   1.269       .  A
C147        C296   1.470       .  S
C148        O153   1.272       .  A
C148        O151   1.268       .  A
C148        C521   1.485       .  S
Cd149       O156   2.410       .  S
Cd149       O155   2.452       .  S
Cd149       O154   2.387       .  S
Cd149       O150   2.459       .  S
Cd149       O153   2.488       .  S
Cd149       O151   2.418       .  S
C152        O156   1.263       .  A
C152        C320   1.487       .  S
O157        C160   1.271       .  A
O157       Cd162   2.473       .  S
C158        O167   1.263       .  A
C158        O163   1.274       .  A
C158        C269   1.468       .  S
O159        C165   1.274       .  A
O159       Cd162   2.477       .  S
C160        O168   1.270       .  A
C160        C260   1.481       .  S
C161        O166   1.273       .  A
C161        O164   1.268       .  A
C161        C380   1.489       .  S
Cd162       O169   2.412       .  S
Cd162       O168   2.426       .  S
Cd162       O167   2.371       .  S
Cd162       O163   2.467       .  S
Cd162       O166   2.499       .  S
Cd162       O164   2.397       .  S
C165        O169   1.266       .  A
C165        C248   1.483       .  S
O170        C173   1.268       .  A
O170       Cd175   2.454       .  S
C171        O180   1.264       .  A
C171        O176   1.272       .  A
C171        C272   1.466       .  S
O172        C178   1.274       .  A
O172       Cd175   2.493       .  S
C173        O181   1.269       .  A
C173        C257   1.469       .  S
C174        O179   1.274       .  A
C174        O177   1.267       .  A
C174        C329   1.482       .  S
Cd175       O182   2.415       .  S
Cd175       O181   2.450       .  S
Cd175       O772   2.386   1_554  S
Cd175       O768   2.467   1_554  S
Cd175       O771   2.507   1_554  S
Cd175       O769   2.393   1_554  S
O176       Cd767   2.467       .  S
O177       Cd767   2.393       .  S
C178        O182   1.264       .  A
C178        C236   1.483       .  S
O179       Cd767   2.507       .  S
O180       Cd767   2.386       .  S
O183        C186   1.270       .  A
O183       Cd188   2.459       .  S
C184        O193   1.265       .  A
C184        O189   1.273       .  A
C184        C224   1.476       .  S
O185        C191   1.275       .  A
O185       Cd188   2.494       .  S
C186        O194   1.270       .  A
C186        C212   1.484       .  S
C187        O192   1.274       .  A
C187        O190   1.267       .  A
C187        C425   1.488       .  S
Cd188       O195   2.401       .  S
Cd188       O194   2.451       .  S
Cd188       O193   2.385       .  S
Cd188       O189   2.464       .  S
Cd188       O192   2.503       .  S
Cd188       O190   2.383       .  S
C191        O195   1.265       .  A
C191        C245   1.486       .  S
O196        C199   1.269       .  A
O196       Cd793   2.460       .  S
C197        O206   1.260       .  A
C197        O202   1.271       .  A
C197        C221   1.459       .  S
O198        C204   1.272       .  A
O198       Cd793   2.506       .  S
C199        O207   1.269       .  A
C199        C209   1.485       .  S
C200        O205   1.269       .  A
C200        O203   1.268       .  A
C200        C284   1.477       .  S
Cd201       O206   2.375       .  S
Cd201       O202   2.488       .  S
Cd201       O205   2.471       .  S
Cd201       O203   2.458       .  S
Cd201       O788   2.460       .  S
Cd201       O790   2.506       .  S
Cd201       O800   2.420       .  S
Cd201       O799   2.460       .  S
C204        O208   1.262   1_554  A
C204        C233   1.487       .  S
O207       Cd793   2.460       .  S
O208       Cd793   2.420   1_556  S
C209        C210   1.406       .  A
C209        C214   1.410       .  A
C210        C211   1.402       .  A
C210        H215   1.083       .  S
C211        C212   1.410       .  A
C211        O216   1.372       .  S
C212        C213   1.405       .  A
C213        C214   1.403       .  A
C213        H217   1.084       .  S
C214        O218   1.372       .  S
O216        H220   0.992       .  S
O218        H219   0.992       .  S
C221        C222   1.402       .  A
C221        C226   1.401       .  A
C222        C223   1.398       .  A
C222        H227   1.084       .  S
C223        C224   1.408       .  A
C223        O228   1.371       .  S
C224        C225   1.409       .  A
C225        C226   1.396       .  A
C225        H229   1.083       .  S
C226        O230   1.372       .  S
O228        H232   0.992       .  S
O230        H231   0.991       .  S
C233        C238   1.409       .  A
C233        C826   1.409       .  A
C234        C235   1.401   1_655  A
C234        C825   1.409       .  A
C234        H239   1.083       .  S
C235        C828   1.406       .  A
C235        O240   1.371       .  S
C236        C237   1.408       .  A
C236        C827   1.406       .  A
C237        C238   1.402   1_455  A
C237        H241   1.084       .  S
C238        O242   1.371       .  S
O240        H244   0.992       .  S
O242        H243   0.992       .  S
C245        C246   1.409       .  A
C245        C250   1.408   1_655  A
C246        C247   1.399       .  A
C246        H251   1.083       .  S
C247        C248   1.407   1_655  A
C247        O252   1.371       .  S
C248        C249   1.409       .  A
C249        C250   1.402       .  A
C249        H253   1.083       .  S
C250        O254   1.371       .  S
O252        H256   0.992       .  S
O254        H255   0.992       .  S
C257        C258   1.403       .  A
C257        C262   1.404       .  A
C258        C259   1.408       .  A
C258        H263   1.083       .  S
C259        C260   1.413       .  A
C259        O264   1.371       .  S
C260        C261   1.404       .  A
C261        C262   1.395       .  A
C261        H265   1.084       .  S
C262        O266   1.373       .  S
O264        H268   0.992       .  S
O266        H267   0.992       .  S
C269        C270   1.398       .  A
C269        C274   1.413       .  A
C270        C271   1.397       .  A
C270        H275   1.084       .  S
C271        C272   1.410       .  A
C271        O276   1.372       .  S
C272        C273   1.398       .  A
C273        C274   1.397       .  A
C273        H277   1.084       .  S
C274        O278   1.373       .  S
O276        H280   0.991       .  S
O278        H279   0.992       .  S
C281        C282   1.400       .  A
C281        C286   1.409       .  A
C282        C283   1.405       .  A
C282        H287   1.083       .  S
C283        C284   1.413       .  A
C283        O288   1.371       .  S
C284        C285   1.399       .  A
C285        C286   1.401       .  A
C285        H289   1.084       .  S
C286        O290   1.369       .  S
O288        H292   0.991       .  S
O290        H291   0.992       .  S
C293        C294   1.405       .  A
C293        C298   1.413       .  A
C294        C295   1.396       .  A
C294        H299   1.084       .  S
C295        C296   1.404       .  A
C295        O300   1.373       .  S
C296        C297   1.402       .  A
C297        C298   1.408       .  A
C297        H301   1.083       .  S
C298        O302   1.371       .  S
O300        H304   0.992       .  S
O302        H303   0.992       .  S
C305        C306   1.405       .  A
C305        C310   1.400       .  A
C306        C899   1.400   1_554  A
C306        H311   1.084       .  S
C307        C308   1.406       .  A
C307        C898   1.400       .  A
C307        O312   1.371       .  S
C308        C309   1.407       .  A
C309        C902   1.392       .  A
C309        H313   1.081       .  S
C310        C901   1.392   1_554  A
C310        O314   1.372       .  S
O312        H316   0.992       .  S
O314        H315   0.992       .  S
C317        C318   1.408       .  A
C317        C322   1.405       .  A
C318        C319   1.402       .  A
C318        H323   1.084       .  S
C319        C320   1.409       .  A
C319        O324   1.371       .  S
C320        C321   1.410       .  A
C321        C322   1.401       .  A
C321        H325   1.083       .  S
C322        O326   1.371       .  S
O324        H328   0.992       .  S
O326        H327   0.992       .  S
C329        C330   1.403       .  A
C329        C334   1.408       .  A
C330        C331   1.393       .  A
C330        H335   1.084       .  S
C331        C332   1.411       .  A
C331        O336   1.372       .  S
C332        C333   1.411       .  A
C333        C334   1.411       .  A
C333        H337   1.083       .  S
C334        O338   1.371       .  S
O336        H340   0.992       .  S
O338        H339   0.992       .  S
C341        C342   1.401       .  A
C341        C346   1.413       .  A
C342        C343   1.401       .  A
C342        H347   1.084       .  S
C343        C344   1.416       .  A
C343        O348   1.372       .  S
C344        C345   1.403       .  A
C345        C346   1.401       .  A
C345        H349   1.083       .  S
C346        O350   1.372       .  S
O348        H352   0.992       .  S
O350        H351   0.992       .  S
C353        C354   1.404       .  A
C353        C358   1.407       .  A
C354        C355   1.400       .  A
C354        H359   1.084       .  S
C355        C356   1.412       .  A
C355        O360   1.371       .  S
C356        C357   1.408       .  A
C357        C358   1.404       .  A
C357        H361   1.083       .  S
C358        O362   1.372       .  S
O360        H364   0.992       .  S
O362        H363   0.992       .  S
C365        C366   1.405       .  A
C365        C370   1.402       .  A
C366        C959   1.396       .  A
C366        H371   1.084       .  S
C367        C368   1.404       .  A
C367        C958   1.396   1_554  A
C367        O372   1.371       .  S
C368        C369   1.407       .  A
C369        C962   1.396   1_554  A
C369        H373   1.084       .  S
C370        C961   1.396       .  A
C370        O374   1.371       .  S
O372        H376   0.992       .  S
O374        H375   0.992       .  S
C377        C378   1.406       .  A
C377        C382   1.412       .  A
C378        C379   1.411       .  A
C378        H383   1.083   1_455  S
C379        C380   1.414       .  A
C379        O384   1.371   1_455  S
C380        C381   1.404       .  A
C381        C382   1.393       .  A
C381        H385   1.083       .  S
C382        O386   1.373       .  S
O384        H388   0.991       .  S
O386        H387   0.991       .  S
C389        C390   1.403       .  A
C389        C394   1.413       .  A
C390        C983   1.393       .  A
C390        H395   1.084       .  S
C391        C392   1.404       .  A
C391        C982   1.393   1_554  A
C391        O396   1.372       .  S
C392        C393   1.402       .  A
C393        C986   1.408   1_554  A
C393        H397   1.083       .  S
C394        C985   1.408       .  A
C394        O398   1.371       .  S
O396        H400   0.992       .  S
O398        H399   0.992       .  S
C401        C402   1.399       .  A
C401        C406   1.413       .  A
C402        C403   1.397       .  A
C402        H407   1.084       .  S
C403        C404   1.410       .  A
C403        O408   1.373       .  S
C404        C405   1.398       .  A
C405        C406   1.397       .  A
C405        H409   1.084       .  S
C406        O410   1.372       .  S
O408        H412   0.992       .  S
O410        H411   0.992       .  S
C413        C414   1.402       .  A
C413        C418   1.415   1_545  A
C414        C415   1.402   1_655  A
C414        H419   1.083       .  S
C415        C416   1.413       .  A
C415        O420   1.372       .  S
C416        C417   1.401       .  A
C417        C418   1.401   1_445  A
C417        H421   1.084   1_545  S
C418        O422   1.372       .  S
O420        H424   0.992       .  S
O422        H423   0.992       .  S
C425        C426   1.403       .  A
C425        C430   1.414       .  A
C426        C427   1.392       .  A
C426        H431   1.084       .  S
C427        C428   1.412       .  A
C427        O432   1.373       .  S
C428        C429   1.407       .  A
C429        C430   1.411       .  A
C429        H433   1.083   1_655  S
C430        O434   1.371   1_655  S
O432        H436   0.992       .  S
O434        H435   0.992       .  S
C437        C438   1.409   1_565  A
C437        C442   1.408   1_655  A
C438        C439   1.402       .  A
C438        H443   1.083       .  S
C439        C440   1.408   1_655  A
C439        O444   1.371       .  S
C440        C441   1.409       .  A
C441        C442   1.400   1_545  A
C441        H445   1.083       .  S
C442        O446   1.371       .  S
O444        H448   0.992       .  S
O446        H447   0.992       .  S
C449        C450   1.408       .  A
C449        C454   1.409       .  A
C450       C1043   1.409       .  A
C450        H455   1.083       .  S
C451        C452   1.407       .  A
C451       C1042   1.409   1_554  A
C451        O456   1.371       .  S
C452        C453   1.399       .  A
C453       C1046   1.393   1_554  A
C453        H457   1.084       .  S
C454       C1045   1.393       .  A
C454        O458   1.372       .  S
O456        H460   0.992       .  S
O458        H459   0.992       .  S
C461        C462   1.409       .  A
C461        C466   1.408       .  A
C462        C463   1.394       .  A
C462        H467   1.084       .  S
C463        C464   1.401       .  A
C463        O468   1.372       .  S
C464        C465   1.403       .  A
C465        C466   1.398       .  A
C465        H469   1.084       .  S
C466        O470   1.371       .  S
O468        H472   0.991       .  S
O470        H471   0.992       .  S
C473        C474   1.404       .  A
C473        C478   1.411       .  A
C474        C475   1.411       .  A
C474        H479   1.083       .  S
C475        C476   1.416       .  A
C475        O480   1.371       .  S
C476        C477   1.402       .  A
C477        C478   1.396       .  A
C477        H481   1.084       .  S
C478        O482   1.372       .  S
O480        H484   0.992       .  S
O482        H483   0.992       .  S
C485        C486   1.411       .  A
C485        C490   1.407       .  A
C486        C487   1.409       .  A
C486        H491   1.083       .  S
C487        C488   1.405       .  A
C487        O492   1.371       .  S
C488        C489   1.404       .  A
C489        C490   1.396       .  A
C489        H493   1.084       .  S
C490        O494   1.372       .  S
O492        H496   0.992       .  S
O494        H495   0.992       .  S
C497        C498   1.402       .  A
C497        C502   1.406       .  A
C498        C499   1.399       .  A
C498        H503   1.084       .  S
C499        C500   1.413       .  A
C499        O504   1.372       .  S
C500        C501   1.409       .  A
C501        C502   1.404       .  A
C501        H505   1.083       .  S
C502        O506   1.371       .  S
O504        H508   0.991       .  S
O506        H507   0.992       .  S
C509        C510   1.406       .  A
C509        C514   1.404       .  A
C510        C511   1.395       .  A
C510        H515   1.084       .  S
C511        C512   1.403       .  A
C511        O516   1.372       .  S
C512        C513   1.406       .  A
C513        C514   1.397       .  A
C513        H517   1.084       .  S
C514        O518   1.371       .  S
O516        H520   0.992       .  S
O518        H519   0.992       .  S
C521        C522   1.411       .  A
C521        C526   1.409       .  A
C522        C523   1.410       .  A
C522        H527   1.083       .  S
C523        C524   1.407       .  A
C523        O528   1.371       .  S
C524        C525   1.404       .  A
C525        C526   1.396       .  A
C525        H529   1.084       .  S
C526        O530   1.372       .  S
O528        H532   0.992       .  S
O530        H531   0.992       .  S
C533        C538   1.407   1_556  A
C533       C1126   1.409   1_565  A
C534        C535   1.405       .  A
C534       C1125   1.409   1_545  A
C534        H539   1.083       .  S
C535        C536   1.409       .  A
C535        O540   1.371       .  S
C536       C1129   1.410       .  A
C537        C538   1.400   1_545  A
C537       C1128   1.410   1_554  A
C537        H541   1.083       .  S
C538        O542   1.372       .  S
O540        H544   0.992       .  S
O542        H543   0.992       .  S
C545        C546   1.412       .  A
C545        C550   1.409       .  A
C546        C547   1.410       .  A
C546        H551   1.083   1_565  S
C547        C548   1.407       .  A
C547        O552   1.371   1_565  S
C548        C549   1.403       .  A
C549        C550   1.396       .  A
C549        H553   1.085       .  S
C550        O554   1.372       .  S
O552        H556   0.992   1_545  S
O554        H555   0.992       .  S
C557        C558   1.409       .  A
C557        C562   1.406       .  A
C558        C559   1.403       .  A
C558        H563   1.083       .  S
C559        C560   1.408       .  A
C559        O564   1.371       .  S
C560        C561   1.409   1_545  A
C561        C562   1.399   1_565  A
C561        H565   1.083       .  S
C562        O566   1.372   1_545  S
O564        H568   0.992       .  S
O566        H567   0.992       .  S
C569        C570   1.407       .  A
C569        C574   1.412       .  A
C570        C571   1.402       .  A
C570        H575   1.083       .  S
C571        C572   1.408       .  A
C571        O576   1.372       .  S
C572        C573   1.404       .  A
C573        C574   1.400       .  A
C573        H577   1.084       .  S
C574        O578   1.372       .  S
O576        H580   0.992       .  S
O578        H579   0.992       .  S
C581        C582   1.399       .  A
C581        C586   1.407       .  A
C582        C583   1.390       .  A
C582        H587   1.084       .  S
C583        C584   1.408       .  A
C583        O588   1.373       .  S
C584        C585   1.404       .  A
C585        C586   1.402       .  A
C585        H589   1.084       .  S
C586        O590   1.371       .  S
O588        H592   0.992       .  S
O590        H591   0.992       .  S
O593        C596   1.272       .  A
O593       Cd598   2.462       .  S
C594        O603   1.269       .  A
C594        O599   1.268       .  A
C594       C1164   1.479       .  S
O595        C601   1.274       .  A
O595       Cd598   2.510       .  S
C596        O604   1.265       .  A
C596       C1173   1.463       .  S
C597        O602   1.275   1_565  A
C597        O600   1.265       .  A
C597       C1152   1.487   1_565  S
Cd598       O605   2.393       .  S
Cd598       O604   2.369       .  S
Cd598       O603   2.454       .  S
Cd598       O599   2.448       .  S
Cd598       O602   2.505   1_565  S
Cd598       O600   2.400       .  S
C601        O605   1.265       .  A
C601       C1140   1.477       .  S
O606        C609   1.271       .  A
C607        O616   1.265       .  A
C607        O612   1.274       .  A
C607       C1176   1.467       .  S
O608        C614   1.275       .  A
O608       Cd611   2.486       .  S
C609        O617   1.269       .  A
C609       C1161   1.485       .  S
C610        O615   1.275       .  A
C610        O613   1.266       .  A
C610       C1116   1.480       .  S
Cd611       O616   2.358       .  S
Cd611       O612   2.467       .  S
Cd611       O615   2.512       .  S
Cd611       O613   2.394       .  S
C614       C1125   1.485       .  S
O619        C622   1.273       .  A
O619       Cd624   2.481       .  S
C620        O629   1.269       .  A
C620        O625   1.271       .  A
C620       C1092   1.488       .  S
O621        C627   1.271       .  A
O621       Cd624   2.485       .  S
C622        O630   1.262       .  A
C622       C1101   1.467       .  S
C623        O628   1.273       .  A
C623        O626   1.265       .  A
C623       C1149   1.483       .  S
Cd624       O631   2.424       .  S
Cd624       O630   2.367       .  S
Cd624       O629   2.437       .  S
Cd624       O625   2.465       .  S
Cd624       O628   2.482       .  S
Cd624       O626   2.423       .  S
C627        O631   1.268       .  A
C627       C1077   1.482       .  S
O632        C635   1.272       .  A
O632       Cd637   2.454       .  S
C633        O642   1.269       .  A
C633        O638   1.267       .  A
C633       C1089   1.477       .  S
O634        C640   1.275       .  A
O634       Cd637   2.514       .  S
C635        O643   1.265       .  A
C635       C1104   1.466       .  S
C636        O639   1.263   1_556  A
C636       C1128   1.489       .  S
Cd637       O644   2.399       .  S
Cd637       O643   2.391       .  S
Cd637       O641   2.522       .  S
C640        O644   1.267       .  A
C640       C1065   1.483       .  S
O645        C648   1.275       .  A
O645       Cd650   2.467       .  S
C646        O655   1.269       .  A
C646        O651   1.271       .  A
C646       C1041   1.477       .  S
O647        C653   1.274       .  A
O647       Cd650   2.501       .  S
C648        O656   1.265       .  A
C648       C1053   1.475       .  S
C649        O654   1.275       .  A
C649        O652   1.267       .  A
C649       C1029   1.486       .  S
Cd650       O657   2.386       .  S
Cd650       O656   2.368       .  S
Cd650       O655   2.417       .  S
Cd650       O651   2.473       .  S
Cd650       O654   2.476       .  S
Cd650       O652   2.417       .  S
C653        O657   1.267       .  A
C653       C1020   1.486       .  S
O658        C661   1.272       .  A
O658       Cd663   2.474       .  S
C659        O668   1.267       .  A
C659        O664   1.270       .  A
C659       C1044   1.470       .  S
O660        C666   1.270       .  A
O660       Cd663   2.479       .  S
C661        O669   1.261       .  A
C661       C1056   1.459       .  S
C662        O667   1.273   1_565  A
C662        O665   1.263       .  A
C662       C1005   1.485   1_565  S
Cd663       O670   2.430       .  S
Cd663       O669   2.375       .  S
Cd663       O668   2.423       .  S
Cd663       O664   2.482       .  S
Cd663       O667   2.495   1_565  S
Cd663       O665   2.416       .  S
C666        O670   1.268       .  A
C666       C1137   1.481       .  S
O671        C674   1.268       .  A
O671       Cd676   2.442       .  S
C672        O681   1.265       .  A
C672        O677   1.273       .  A
C672        C993   1.469       .  S
O673        C679   1.275       .  A
O673       Cd676   2.497       .  S
C674        O682   1.269       .  A
C674        C984   1.468       .  S
C675        O680   1.275       .  A
C675        O678   1.266       .  A
C675       C1080   1.477       .  S
Cd676       O683   2.413       .  S
Cd676       O682   2.454       .  S
Cd676       O681   2.385       .  S
Cd676       O677   2.456       .  S
Cd676       O680   2.503       .  S
Cd676       O678   2.392       .  S
C679        O683   1.264       .  A
C679       C1008   1.481       .  S
O684        C687   1.270       .  A
O684       Cd689   2.472       .  S
C685        O694   1.264       .  A
C685        O690   1.273       .  A
C685        C996   1.466       .  S
O686        C692   1.275       .  A
O686       Cd689   2.495       .  S
C687        O695   1.269       .  A
C687        C981   1.480       .  S
C688        O693   1.274       .  A
C688        O691   1.267       .  A
C688        C969   1.486       .  S
Cd689       O696   2.406       .  S
Cd689       O695   2.423       .  S
Cd689       O694   2.379       .  S
Cd689       O690   2.467       .  S
Cd689       O693   2.501       .  S
Cd689       O691   2.393       .  S
C692        O696   1.265       .  A
C692       C1032   1.487       .  S
O697        C700   1.270       .  A
O697       Cd702   2.459       .  S
C698        O707   1.262       .  A
C698        O703   1.272       .  A
C698        C957   1.463       .  S
O699        C705   1.274       .  A
O699       Cd702   2.492       .  S
C700        O708   1.270       .  A
C700        C948   1.488       .  S
C701        O706   1.273       .  A
C701        O704   1.267       .  A
C701        C924   1.489       .  S
Cd702       O709   2.409       .  S
Cd702       O708   2.450       .  S
Cd702       O707   2.377       .  S
Cd702       O703   2.474       .  S
Cd702       O706   2.502       .  S
Cd702       O704   2.399       .  S
C705        O709   1.264       .  A
C705        C933   1.482       .  S
O710        C713   1.269       .  A
O710       Cd715   2.446       .  S
C711        O720   1.263       .  A
C711        O716   1.271       .  A
C711        C960   1.468       .  S
O712        C718   1.274       .  A
O712       Cd715   2.499       .  S
C713        O721   1.270       .  A
C713        C945   1.479       .  S
C714        O719   1.272       .  A
C714        O717   1.268       .  A
C714       C1068   1.487       .  S
Cd715       O722   2.413       .  S
Cd715       O721   2.468       .  S
Cd715       O720   2.378       .  S
Cd715       O716   2.470       .  S
Cd715       O719   2.496       .  S
Cd715       O717   2.417       .  S
C718        O722   1.263       .  A
C718        C909   1.481       .  S
O723        C726   1.274       .  A
O723       Cd728   2.480       .  S
C724        O733   1.269       .  A
C724        O729   1.271       .  A
C724        C885   1.484       .  S
O725        C731   1.271       .  A
O725       Cd728   2.480       .  S
C726        O734   1.264       .  A
C726        C900   1.472       .  S
C727        O732   1.274       .  A
C727        O730   1.265       .  A
C727        C936   1.486       .  S
Cd728       O735   2.448       .  S
Cd728       O734   2.366       .  S
Cd728       O733   2.428       .  S
Cd728       O729   2.482       .  S
Cd728       O732   2.486       .  S
Cd728       O730   2.416       .  S
C731        O735   1.267       .  A
C731        C873   1.476       .  S
O736        C739   1.269       .  A
O736       Cd741   2.458       .  S
C737        O746   1.262       .  A
C737        O742   1.272       .  A
C737        C897   1.461       .  S
O738        C744   1.274       .  A
O738       Cd741   2.501       .  S
C739        O747   1.269       .  A
C739        C888   1.470       .  S
C740        O745   1.272       .  A
C740        O743   1.268       .  A
C740       C1113   1.485       .  S
Cd741       O748   2.410       .  S
Cd741       O747   2.452       .  S
Cd741       O746   2.387       .  S
Cd741       O742   2.459       .  S
Cd741       O745   2.488       .  S
Cd741       O743   2.418       .  S
C744        O748   1.263       .  A
C744        C912   1.487       .  S
O749        C752   1.271       .  A
O749       Cd754   2.473       .  S
C750        O759   1.263       .  A
C750        O755   1.274       .  A
C750        C861   1.468       .  S
O751        C757   1.274       .  A
O751       Cd754   2.477       .  S
C752        O760   1.270       .  A
C752        C852   1.481       .  S
C753        O758   1.273       .  A
C753        O756   1.268       .  A
C753        C972   1.489       .  S
Cd754       O761   2.412       .  S
Cd754       O760   2.426       .  S
Cd754       O759   2.371       .  S
Cd754       O755   2.467       .  S
Cd754       O758   2.499       .  S
Cd754       O756   2.397       .  S
C757        O761   1.266       .  A
C757        C840   1.483       .  S
O762        C765   1.268       .  A
O762       Cd767   2.454       .  S
C763        O772   1.264       .  A
C763        O768   1.272       .  A
C763        C864   1.466       .  S
O764        C770   1.274       .  A
O764       Cd767   2.493       .  S
C765        O773   1.269       .  A
C765        C849   1.469       .  S
C766        O771   1.274       .  A
C766        O769   1.267       .  A
C766        C921   1.482       .  S
Cd767       O774   2.415       .  S
Cd767       O773   2.450       .  S
C770        O774   1.264       .  A
C770        C828   1.483       .  S
O775        C778   1.270       .  A
O775       Cd780   2.459       .  S
C776        O785   1.265       .  A
C776        O781   1.273       .  A
C776        C816   1.476       .  S
O777        C783   1.275       .  A
O777       Cd780   2.494       .  S
C778        O786   1.270       .  A
C778        C804   1.484       .  S
C779        O784   1.274       .  A
C779        O782   1.267       .  A
C779       C1017   1.488       .  S
Cd780       O787   2.401       .  S
Cd780       O786   2.451       .  S
Cd780       O785   2.385       .  S
Cd780       O781   2.464       .  S
Cd780       O784   2.503       .  S
Cd780       O782   2.383       .  S
C783        O787   1.265       .  A
C783        C837   1.486       .  S
O788        C791   1.269       .  A
C789        O798   1.260       .  A
C789        O794   1.271       .  A
C789        C813   1.459       .  S
O790        C796   1.272       .  A
C791        O799   1.269       .  A
C791        C801   1.485       .  S
C792        O797   1.269       .  A
C792        O795   1.268       .  A
C792        C876   1.477       .  S
Cd793       O798   2.375   1_554  S
Cd793       O794   2.488   1_554  S
Cd793       O797   2.471   1_554  S
Cd793       O795   2.458   1_554  S
C796        O800   1.262       .  A
C796        C825   1.487       .  S
C801        C802   1.406       .  A
C801        C806   1.410       .  A
C802        C803   1.402       .  A
C802        H807   1.083       .  S
C803        C804   1.410       .  A
C803        O808   1.372       .  S
C804        C805   1.405       .  A
C805        C806   1.403       .  A
C805        H809   1.084       .  S
C806        O810   1.372       .  S
O808        H812   0.992       .  S
O810        H811   0.992       .  S
C813        C814   1.402       .  A
C813        C818   1.401       .  A
C814        C815   1.398       .  A
C814        H819   1.084       .  S
C815        C816   1.408       .  A
C815        O820   1.371       .  S
C816        C817   1.409       .  A
C817        C818   1.396       .  A
C817        H821   1.083       .  S
C818        O822   1.372       .  S
O820        H824   0.992       .  S
O822        H823   0.991       .  S
C825        C830   1.409       .  A
C826        C827   1.401   1_655  A
C826        H831   1.083   1_554  S
C827        O832   1.371   1_554  S
C828        C829   1.408       .  A
C829        C830   1.402   1_455  A
C829        H833   1.084       .  S
C830        O834   1.371       .  S
O832        H836   0.992   1_556  S
O834        H835   0.992       .  S
C837        C838   1.409       .  A
C837        C842   1.408   1_655  A
C838        C839   1.399       .  A
C838        H843   1.083       .  S
C839        C840   1.407   1_655  A
C839        O844   1.371       .  S
C840        C841   1.409       .  A
C841        C842   1.402       .  A
C841        H845   1.083       .  S
C842        O846   1.371       .  S
O844        H848   0.992       .  S
O846        H847   0.992       .  S
C849        C850   1.403       .  A
C849        C854   1.404       .  A
C850        C851   1.408       .  A
C850        H855   1.083       .  S
C851        C852   1.413       .  A
C851        O856   1.371       .  S
C852        C853   1.404       .  A
C853        C854   1.395       .  A
C853        H857   1.084       .  S
C854        O858   1.373       .  S
O856        H860   0.992       .  S
O858        H859   0.992       .  S
C861        C862   1.398       .  A
C861        C866   1.413       .  A
C862        C863   1.397       .  A
C862        H867   1.084       .  S
C863        C864   1.410       .  A
C863        O868   1.372       .  S
C864        C865   1.398       .  A
C865        C866   1.397       .  A
C865        H869   1.084       .  S
C866        O870   1.373       .  S
O868        H872   0.991       .  S
O870        H871   0.992       .  S
C873        C874   1.400       .  A
C873        C878   1.409       .  A
C874        C875   1.405       .  A
C874        H879   1.083       .  S
C875        C876   1.413       .  A
C875        O880   1.371       .  S
C876        C877   1.399       .  A
C877        C878   1.401       .  A
C877        H881   1.084       .  S
C878        O882   1.369       .  S
O880        H884   0.991       .  S
O882        H883   0.992       .  S
C885        C886   1.405       .  A
C885        C890   1.413       .  A
C886        C887   1.396       .  A
C886        H891   1.084       .  S
C887        C888   1.404       .  A
C887        O892   1.373       .  S
C888        C889   1.402       .  A
C889        C890   1.408       .  A
C889        H893   1.083       .  S
C890        O894   1.371       .  S
O892        H896   0.992       .  S
O894        H895   0.992       .  S
C897        C898   1.405       .  A
C897        C902   1.400       .  A
C898        H903   1.084       .  S
C899        C900   1.406       .  A
C899        O904   1.371       .  S
C900        C901   1.407       .  A
C901        H905   1.081       .  S
C902        O906   1.372       .  S
O904        H908   0.992       .  S
O906        H907   0.992       .  S
C909        C910   1.408       .  A
C909        C914   1.405       .  A
C910        C911   1.402       .  A
C910        H915   1.084       .  S
C911        C912   1.409       .  A
C911        O916   1.371       .  S
C912        C913   1.410       .  A
C913        C914   1.401       .  A
C913        H917   1.083       .  S
C914        O918   1.371       .  S
O916        H920   0.992       .  S
O918        H919   0.992       .  S
C921        C922   1.403       .  A
C921        C926   1.408       .  A
C922        C923   1.393       .  A
C922        H927   1.084       .  S
C923        C924   1.411       .  A
C923        O928   1.372       .  S
C924        C925   1.411       .  A
C925        C926   1.411       .  A
C925        H929   1.083       .  S
C926        O930   1.371       .  S
O928        H932   0.992       .  S
O930        H931   0.992   1_556  S
C933        C934   1.401       .  A
C933        C938   1.413       .  A
C934        C935   1.401       .  A
C934        H939   1.084       .  S
C935        C936   1.416       .  A
C935        O940   1.372       .  S
C936        C937   1.403       .  A
C937        C938   1.401       .  A
C937        H941   1.083       .  S
C938        O942   1.372       .  S
O940        H944   0.992       .  S
O942        H943   0.992       .  S
C945        C946   1.404       .  A
C945        C950   1.407       .  A
C946        C947   1.400       .  A
C946        H951   1.084       .  S
C947        C948   1.412       .  A
C947        O952   1.371       .  S
C948        C949   1.408       .  A
C949        C950   1.404       .  A
C949        H953   1.083       .  S
C950        O954   1.372       .  S
O952        H956   0.992       .  S
O954        H955   0.992       .  S
C957        C958   1.405       .  A
C957        C962   1.402       .  A
C958        H963   1.084       .  S
C959        C960   1.404       .  A
C959        O964   1.371       .  S
C960        C961   1.407       .  A
C961        H965   1.084       .  S
C962        O966   1.371       .  S
O964        H968   0.992       .  S
O966        H967   0.992       .  S
C969        C970   1.406       .  A
C969        C974   1.412       .  A
C970        C971   1.411       .  A
C970        H975   1.083   1_455  S
C971        C972   1.414       .  A
C971        O976   1.371   1_455  S
C972        C973   1.404       .  A
C973        C974   1.393       .  A
C973        H977   1.083       .  S
C974        O978   1.373       .  S
O976        H980   0.991       .  S
O978        H979   0.991       .  S
C981        C982   1.403       .  A
C981        C986   1.413       .  A
C982        H987   1.084       .  S
C983        C984   1.404       .  A
C983        O988   1.372       .  S
C984        C985   1.402       .  A
C985        H989   1.083       .  S
C986        O990   1.371       .  S
O988        H992   0.992       .  S
O990        H991   0.992       .  S
C993        C994   1.399       .  A
C993        C998   1.413       .  A
C994        C995   1.397       .  A
C994        H999   1.084       .  S
C995        C996   1.410       .  A
C995       O1000   1.373       .  S
C996        C997   1.398       .  A
C997        C998   1.397       .  A
C997       H1001   1.084       .  S
C998       O1002   1.372       .  S
O1000      H1004   0.992       .  S
O1002      H1003   0.992       .  S
C1005      C1006   1.402       .  A
C1005      C1010   1.415   1_545  A
C1006      C1007   1.402   1_655  A
C1006      H1011   1.083       .  S
C1007      C1008   1.413       .  A
C1007      O1012   1.372       .  S
C1008      C1009   1.401       .  A
C1009      C1010   1.401   1_445  A
C1009      H1013   1.084   1_545  S
C1010      O1014   1.372       .  S
O1012      H1016   0.992       .  S
O1014      H1015   0.992       .  S
C1017      C1018   1.403       .  A
C1017      C1022   1.414       .  A
C1018      C1019   1.392       .  A
C1018      H1023   1.084       .  S
C1019      C1020   1.412       .  A
C1019      O1024   1.373       .  S
C1020      C1021   1.407       .  A
C1021      C1022   1.411       .  A
C1021      H1025   1.083   1_655  S
C1022      O1026   1.371   1_655  S
O1024      H1028   0.992       .  S
O1026      H1027   0.992       .  S
C1029      C1030   1.409   1_565  A
C1029      C1034   1.408   1_655  A
C1030      C1031   1.402       .  A
C1030      H1035   1.083       .  S
C1031      C1032   1.408   1_655  A
C1031      O1036   1.371       .  S
C1032      C1033   1.409       .  A
C1033      C1034   1.400   1_545  A
C1033      H1037   1.083       .  S
C1034      O1038   1.371       .  S
O1036      H1040   0.992       .  S
O1038      H1039   0.992       .  S
C1041      C1042   1.408       .  A
C1041      C1046   1.409       .  A
C1042      H1047   1.083       .  S
C1043      C1044   1.407       .  A
C1043      O1048   1.371       .  S
C1044      C1045   1.399       .  A
C1045      H1049   1.084       .  S
C1046      O1050   1.372       .  S
O1048      H1052   0.992       .  S
O1050      H1051   0.992       .  S
C1053      C1054   1.409       .  A
C1053      C1058   1.408       .  A
C1054      C1055   1.394       .  A
C1054      H1059   1.084       .  S
C1055      C1056   1.401       .  A
C1055      O1060   1.372       .  S
C1056      C1057   1.403       .  A
C1057      C1058   1.398       .  A
C1057      H1061   1.084       .  S
C1058      O1062   1.371       .  S
O1060      H1064   0.991       .  S
O1062      H1063   0.992       .  S
C1065      C1066   1.404       .  A
C1065      C1070   1.411       .  A
C1066      C1067   1.411       .  A
C1066      H1071   1.083       .  S
C1067      C1068   1.416       .  A
C1067      O1072   1.371       .  S
C1068      C1069   1.402       .  A
C1069      C1070   1.396       .  A
C1069      H1073   1.084       .  S
C1070      O1074   1.372       .  S
O1072      H1076   0.992       .  S
O1074      H1075   0.992       .  S
C1077      C1078   1.411       .  A
C1077      C1082   1.407       .  A
C1078      C1079   1.409       .  A
C1078      H1083   1.083       .  S
C1079      C1080   1.405       .  A
C1079      O1084   1.371       .  S
C1080      C1081   1.404       .  A
C1081      C1082   1.396       .  A
C1081      H1085   1.084       .  S
C1082      O1086   1.372       .  S
O1084      H1088   0.992       .  S
O1086      H1087   0.992       .  S
C1089      C1090   1.402       .  A
C1089      C1094   1.406       .  A
C1090      C1091   1.399       .  A
C1090      H1095   1.084       .  S
C1091      C1092   1.413       .  A
C1091      O1096   1.372       .  S
C1092      C1093   1.409       .  A
C1093      C1094   1.404       .  A
C1093      H1097   1.083       .  S
C1094      O1098   1.371       .  S
O1096      H1100   0.991       .  S
O1098      H1099   0.992       .  S
C1101      C1102   1.406       .  A
C1101      C1106   1.404       .  A
C1102      C1103   1.395       .  A
C1102      H1107   1.084       .  S
C1103      C1104   1.403       .  A
C1103      O1108   1.372       .  S
C1104      C1105   1.406       .  A
C1105      C1106   1.397       .  A
C1105      H1109   1.084       .  S
C1106      O1110   1.371       .  S
O1108      H1112   0.992       .  S
O1110      H1111   0.992       .  S
C1113      C1114   1.411       .  A
C1113      C1118   1.409       .  A
C1114      C1115   1.410       .  A
C1114      H1119   1.083       .  S
C1115      C1116   1.407       .  A
C1115      O1120   1.371       .  S
C1116      C1117   1.404       .  A
C1117      C1118   1.396       .  A
C1117      H1121   1.084       .  S
C1118      O1122   1.372       .  S
O1120      H1124   0.992       .  S
O1122      H1123   0.992       .  S
C1125      C1130   1.407       .  A
C1126      C1127   1.405       .  A
C1126      H1131   1.083       .  S
C1127      C1128   1.409       .  A
C1127      O1132   1.371       .  S
C1129      C1130   1.400   1_545  A
C1129      H1133   1.083       .  S
C1130      O1134   1.372       .  S
O1132      H1136   0.992       .  S
O1134      H1135   0.992       .  S
C1137      C1138   1.412       .  A
C1137      C1142   1.409       .  A
C1138      C1139   1.410       .  A
C1138      H1143   1.083   1_565  S
C1139      C1140   1.407       .  A
C1139      O1144   1.371   1_565  S
C1140      C1141   1.403       .  A
C1141      C1142   1.396       .  A
C1141      H1145   1.085       .  S
C1142      O1146   1.372       .  S
O1144      H1148   0.992   1_545  S
O1146      H1147   0.992       .  S
C1149      C1150   1.409       .  A
C1149      C1154   1.406       .  A
C1150      C1151   1.403       .  A
C1150      H1155   1.083       .  S
C1151      C1152   1.408       .  A
C1151      O1156   1.371       .  S
C1152      C1153   1.409   1_545  A
C1153      C1154   1.399   1_565  A
C1153      H1157   1.083       .  S
C1154      O1158   1.372   1_545  S
O1156      H1160   0.992       .  S
O1158      H1159   0.992       .  S
C1161      C1162   1.407       .  A
C1161      C1166   1.412       .  A
C1162      C1163   1.402       .  A
C1162      H1167   1.083       .  S
C1163      C1164   1.408       .  A
C1163      O1168   1.372       .  S
C1164      C1165   1.404       .  A
C1165      C1166   1.400       .  A
C1165      H1169   1.084       .  S
C1166      O1170   1.372       .  S
O1168      H1172   0.992       .  S
O1170      H1171   0.992       .  S
C1173      C1174   1.399       .  A
C1173      C1178   1.407       .  A
C1174      C1175   1.390       .  A
C1174      H1179   1.084       .  S
C1175      C1176   1.408       .  A
C1175      O1180   1.373       .  S
C1176      C1177   1.404       .  A
C1177      C1178   1.402       .  A
C1177      H1181   1.084       .  S
C1178      O1182   1.371       .  S
O1180      H1184   0.992       .  S
O1182      H1183   0.992       .  S
