geometry optimzed in LAMMPS
_audit_creation_date              2020-12-01 
_audit_creation_method            'lammps2cif' 
_symmetry_space_group_name_H-M    'P1' 
_symmetry_Int_Tables_number       1 
_symmetry_cell_setting            triclinic 
loop_ 
_symmetry_equiv_pos_as_xyz 
  x,y,z 
_cell_length_a                    43.20835246 
_cell_length_b                    43.18913477547971 
_cell_length_c                    59.468137842662536 
_cell_angle_alpha                 89.99701917561796 
_cell_angle_beta                  89.84722797375628 
_cell_angle_gamma                 119.97555956347321 
loop_ 
_atom_site_label 
_atom_site_type_symbol 
_atom_site_fract_x 
_atom_site_fract_y 
_atom_site_fract_z 
_atom_site_charge 
O1          O  0.32720045  0.23980874  0.08305985    -0.72900
O2          O  0.41543430  0.24056043  0.07714526    -0.73100
O3          O  0.36517405  0.21883273  0.10882803    -0.73000
O4          O  0.37793795  0.26035415  0.05118111    -0.73000
O5          O  0.40761775  0.31368854  0.06549764    -0.72900
O6          O  0.39118892  0.27148797  0.12414971    -0.73000
O7          O  0.44260854  0.29300254  0.09280504    -0.72900
O8          O  0.35587368  0.29358957  0.09668997    -0.73100
V9          V  0.37177646  0.24090383  0.08037849     1.35200
V10         V  0.39858847  0.29186241  0.09459647     1.35200
C11         C  0.32684699  0.26727915  0.09023050     0.76300
C12         C  0.44408420  0.26727309  0.08394246     0.76400
C13         C  0.37710155  0.23784177  0.12623376     0.76300
C14         C  0.39610889  0.29372371  0.04836597     0.76200
O15         O  0.41455960  0.24090217  0.91989906    -0.72900
O16         O  0.32773637  0.24269252  0.92728954    -0.73100
O17         O  0.35485967  0.22021056  0.89508447    -0.73000
O18         O  0.38599894  0.26195593  0.95229067    -0.73000
O19         O  0.40919372  0.31529094  0.93791714    -0.72900
O20         O  0.38120523  0.27270899  0.87948416    -0.73000
O21         O  0.35276558  0.29503441  0.91138957    -0.72900
O22         O  0.43953169  0.29470463  0.90619124    -0.73100
V23         V  0.37139264  0.24245957  0.92330366     1.35200
V24         V  0.39531593  0.29335374  0.90891107     1.35200
C25         C  0.44230828  0.26837722  0.91263424     0.76300
C26         C  0.32580071  0.26952661  0.92061476     0.76400
C27         C  0.36160354  0.23901564  0.87758297     0.76300
C28         C  0.40163096  0.29532423  0.95504648     0.76200
O29         O  0.19760744  0.30383387  0.08285007    -0.72900
O30         O  0.10880201  0.30176321  0.07664366    -0.73100
O31         O  0.15926028  0.32496967  0.10813580    -0.73000
O32         O  0.14688805  0.28190632  0.05112132    -0.73000
O33         O  0.11695743  0.22894178  0.06603163    -0.72900
O34         O  0.13423880  0.27283339  0.12421945    -0.73000
O35         O  0.08213750  0.25003180  0.09332489    -0.72900
O36         O  0.16921953  0.25014800  0.09677975    -0.73100
V37         V  0.15276334  0.30210837  0.08002300     1.35200
V38         V  0.12635135  0.25155219  0.09489763     1.35200
C39         C  0.19814773  0.27653646  0.09016229     0.76300
C40         C  0.08032956  0.27522250  0.08393577     0.76400
C41         C  0.14814392  0.30653490  0.12585636     0.76300
C42         C  0.12867353  0.24848869  0.04867216     0.76200
O43         O  0.10837894  0.30597409  0.92187655    -0.72900
O44         O  0.19561457  0.30462360  0.92837276    -0.73100
O45         O  0.16856100  0.32832748  0.89691408    -0.73000
O46         O  0.13705768  0.28362971  0.95357809    -0.73000
O47         O  0.11491694  0.23112724  0.93821760    -0.72900
O48         O  0.14196436  0.27655449  0.88047064    -0.73000
O49         O  0.17122204  0.25347205  0.91113052    -0.72900
O50         O  0.08383856  0.25263854  0.90759047    -0.73100
V51         V  0.15177407  0.30465991  0.92484874     1.35200
V52         V  0.12832156  0.25451933  0.90956424     1.35200
C53         C  0.08082825  0.27871218  0.91428021     0.76300
C54         C  0.19793606  0.27842313  0.92082166     0.76400
C55         C  0.16168060  0.31028755  0.87907649     0.76300
C56         C  0.12226376  0.25016903  0.95574095     0.76200
O57         O  0.29336362  0.12096595  0.74973689    -0.72900
O58         O  0.29237053  0.20830754  0.74436938    -0.73100
O59         O  0.31381813  0.17937031  0.77575201    -0.73000
O60         O  0.27311392  0.15170959  0.71808235    -0.73000
O61         O  0.21953771  0.12755103  0.73220349    -0.72900
O62         O  0.26106518  0.15260836  0.79107412    -0.73000
O63         O  0.23969279  0.18275808  0.75985245    -0.72900
O64         O  0.23946523  0.09558234  0.76333754    -0.73100
V65         V  0.29211202  0.16435607  0.74730301     1.35200
V66         V  0.24098981  0.13992882  0.76142695     1.35200
C67         C  0.26600483  0.09310615  0.75696963     0.76300
C68         C  0.26552968  0.21009749  0.75115985     0.76400
C69         C  0.29470080  0.17212855  0.79315717     0.76300
C70         C  0.23984802  0.13691549  0.71512816     0.76200
O71         O  0.29752156  0.21165911  0.58603986    -0.72900
O72         O  0.29493098  0.12290013  0.59523130    -0.73100
O73         O  0.31821374  0.17147667  0.56231887    -0.73000
O74         O  0.27550383  0.16311894  0.61914292    -0.73000
O75         O  0.22252779  0.13139845  0.60474174    -0.72900
O76         O  0.26605880  0.14662551  0.54645679    -0.73000
O77         O  0.24365746  0.09568222  0.57823478    -0.72900
O78         O  0.24344375  0.18256847  0.57300918    -0.73100
V79         V  0.29555266  0.16686142  0.59036221     1.35200
V80         V  0.24496922  0.13976222  0.57579977     1.35200
C81         C  0.27007873  0.21190494  0.57876286     0.76300
C82         C  0.26861370  0.09414226  0.58811885     0.76400
C83         C  0.29968172  0.16006158  0.54471256     0.76300
C84         C  0.24212556  0.14486542  0.62186416     0.76200
O85         O  0.23090903  0.42813182  0.75080089    -0.72900
O86         O  0.23150778  0.34058944  0.74590235    -0.73100
O87         O  0.21027285  0.37015904  0.77719165    -0.73000
O88         O  0.25087080  0.39687123  0.71929467    -0.73000
O89         O  0.30447520  0.42141825  0.73319446    -0.72900
O90         O  0.26300276  0.39637220  0.79230523    -0.73000
O91         O  0.28436941  0.36617367  0.76091474    -0.72900
O92         O  0.28468418  0.45343859  0.76440397    -0.73100
V93         V  0.23195075  0.38464575  0.74862765     1.35200
V94         V  0.28308232  0.40903112  0.76253467     1.35200
C95         C  0.25827867  0.45597544  0.75790963     0.76300
C96         C  0.25847127  0.33883706  0.75236142     0.76400
C97         C  0.22930640  0.37731814  0.79455785     0.76300
C98         C  0.28414145  0.41189072  0.71619695     0.76200
O99         O  0.23315666  0.34081238  0.58512942    -0.72900
O100        O  0.23426843  0.42875718  0.59455054    -0.73100
O101        O  0.21384785  0.38163248  0.56109096    -0.73000
O102        O  0.25230182  0.38787886  0.61886926    -0.73000
O103        O  0.30627633  0.42024390  0.60583124    -0.72900
O104        O  0.26705778  0.40776731  0.54644249    -0.73000
O105        O  0.28693355  0.45708663  0.57911345    -0.72900
O106        O  0.28805031  0.37068551  0.57332230    -0.73100
V107        V  0.23443187  0.38522231  0.58960698     1.35200
V108        V  0.28603130  0.41323247  0.57633154     1.35200
C109        C  0.26117591  0.34105921  0.57845568     0.76300
C110        C  0.26103665  0.45791773  0.58827928     0.76400
C111        C  0.23352369  0.39412423  0.54395885     0.76300
C112        C  0.28542694  0.40610047  0.62244493     0.76200
O113        O  0.20063542  0.42711128  0.25251395    -0.72900
O114        O  0.11192433  0.34048849  0.26036070    -0.73100
O115        O  0.16127315  0.36722693  0.22788550    -0.73000
O116        O  0.15129006  0.39898348  0.28513775    -0.73000
O117        O  0.12044480  0.42143321  0.27092276    -0.72900
O118        O  0.13591967  0.39433151  0.21232750    -0.73000
O119        O  0.08481676  0.36531032  0.24405339    -0.72900
O120        O  0.17177675  0.45232284  0.23933881    -0.73100
V121        V  0.15586905  0.38404535  0.25613953     1.35200
V122        V  0.12895515  0.40799977  0.24183385     1.35200
C123        C  0.20094512  0.45495636  0.24541940     0.76300
C124        C  0.08321494  0.33845285  0.25352432     0.76400
C125        C  0.14968039  0.37443049  0.21037629     0.76300
C126        C  0.13315996  0.41420324  0.28800001     0.76200
O127        O  0.11323029  0.33988841  0.41722933    -0.72900
O128        O  0.20001508  0.42857202  0.40925440    -0.73100
O129        O  0.17311227  0.37965733  0.44186132    -0.73000
O130        O  0.14196598  0.38929779  0.38435939    -0.73000
O131        O  0.11813704  0.41903320  0.39845322    -0.72900
O132        O  0.14683992  0.40621108  0.45704563    -0.73000
O133        O  0.17472961  0.45599099  0.42463786    -0.72900
O134        O  0.08830514  0.36881534  0.43083206    -0.73100
V135        V  0.15638648  0.38467759  0.41349918     1.35200
V136        V  0.13232206  0.41174361  0.42755561     1.35200
C137        C  0.08558335  0.33955905  0.42480253     0.76300
C138        C  0.20182739  0.45744110  0.41559513     0.76400
C139        C  0.16663901  0.39239456  0.45915276     0.76300
C140        C  0.12664023  0.40730469  0.38140173     0.76200
O141        O  0.32959047  0.12086372  0.25355389    -0.72900
O142        O  0.41776421  0.20812557  0.26090916    -0.73100
O143        O  0.36840360  0.18060414  0.22867561    -0.73000
O144        O  0.37893913  0.14970369  0.28604541    -0.73000
O145        O  0.41012972  0.12755923  0.27182180    -0.72900
O146        O  0.39432728  0.15395173  0.21316343    -0.73000
O147        O  0.44535242  0.18359885  0.24473578    -0.72900
O148        O  0.35892704  0.09607779  0.24038316    -0.73100
V149        V  0.37409578  0.16422843  0.25697553     1.35200
V150        V  0.40146663  0.14064186  0.24270824     1.35200
C151        C  0.32958527  0.09319982  0.24639762     0.76300
C152        C  0.44661945  0.21039945  0.25405448     0.76400
C153        C  0.38007757  0.17339926  0.21116401     0.76300
C154        C  0.39739284  0.13484355  0.28891237     0.76200
O155        O  0.41983453  0.21082119  0.41785969    -0.72900
O156        O  0.33239287  0.12292055  0.41033967    -0.73100
O157        O  0.35999500  0.17206678  0.44272271    -0.73000
O158        O  0.39060305  0.16133804  0.38522155    -0.73000
O159        O  0.41307469  0.13043492  0.39934824    -0.72900
O160        O  0.38605596  0.14548869  0.45806580    -0.73000
O161        O  0.35672121  0.09489832  0.42609525    -0.72900
O162        O  0.44430878  0.18129957  0.43111964    -0.73100
V163        V  0.37636213  0.16641708  0.41436706     1.35200
V164        V  0.39972488  0.13878570  0.42848822     1.35200
C165        C  0.44735137  0.21072038  0.42513251     0.76300
C166        C  0.33004247  0.09387862  0.41681083     0.76400
C167        C  0.36671446  0.15984333  0.46013434     0.76300
C168        C  0.40515899  0.14260032  0.38228364     0.76200
C169        C  0.43635098  0.15399880  0.32247657    -0.14500
C170        C  0.40467202  0.12841723  0.31202245     0.07700
C171        C  0.37633501  0.10339561  0.32529415    -0.14500
C172        C  0.37862953  0.10550733  0.34873445    -0.14500
C173        C  0.40904413  0.13299747  0.35920064     0.07700
C174        C  0.43843070  0.15648758  0.34599609    -0.14500
H175        H  0.45802800  0.17427159  0.31248761     0.11700
H176        H  0.35133031  0.08421318  0.31755267     0.11700
H177        H  0.35530977  0.08781216  0.35866125     0.11700
H178        H  0.46163414  0.17852817  0.35375673     0.11700
C179        C  0.26802717  0.99455447  0.41146872    -0.14500
C180        C  0.23459964  0.49226601  0.41309126     0.07700
C181        C  0.23269943  0.02383015  0.41393880    -0.14500
C182        C  0.26379977  0.05716314  0.41410106    -0.14500
C183        C  0.29721957  0.05934261  0.41386660     0.07700
C184        C  0.29915241  0.02788465  0.41209434    -0.14500
H185        H  0.27012872  0.47061358  0.41074057     0.11700
H186        H  0.20712546  0.52270998  0.41498194     0.11700
H187        H  0.26174521  0.08108729  0.41541810     0.11700
H188        H  0.32478888  0.02907045  0.41161925     0.11700
C189        C  0.04766606  0.27263371  0.42496069    -0.14500
C190        C  0.05042142  0.30636494  0.42594786     0.07700
C191        C  0.01893561  0.30840376  0.42728155    -0.14500
C192        C  0.48536879  0.27740016  0.42706731    -0.14500
C193        C  0.48262397  0.24369829  0.42604098     0.07700
C194        C  0.51408821  0.24158798  0.42526338    -0.14500
H195        H  0.07142712  0.27026634  0.42392774     0.11700
H196        H  0.02021666  0.33407906  0.42795098     0.11700
H197        H  0.46158335  0.27976903  0.42772970     0.11700
H198        H  0.51271266  0.21588336  0.42433380     0.11700
C199        C  0.23190851  0.02167589  0.24465957    -0.14500
C200        C  0.23402252  0.49018106  0.24492275     0.07700
C201        C  0.26772890  0.99290552  0.24545003    -0.14500
C202        C  0.29872679  0.02648565  0.24551293    -0.14500
C203        C  0.29658903  0.05796356  0.24555339     0.07700
C204        C  0.26288423  0.05524215  0.24521726    -0.14500
H205        H  0.20621690  0.52036215  0.24446729     0.11700
H206        H  0.27011787  0.46910900  0.24573652     0.11700
H207        H  0.32442471  0.02782206  0.24595336     0.11700
H208        H  0.26048950  0.07903704  0.24526428     0.11700
C209        C  0.01690918  0.30780110  0.25591974    -0.14500
C210        C  0.04840347  0.30576530  0.25615510     0.07700
C211        C  0.04607670  0.27231159  0.25759494    -0.14500
C212        C  0.51271058  0.24124636  0.25751485    -0.14500
C213        C  0.48125180  0.24326148  0.25649370     0.07700
C214        C  0.48352791  0.27674438  0.25633141    -0.14500
H215        H  0.01811951  0.33343453  0.25502233     0.11700
H216        H  0.06998723  0.27013889  0.25782539     0.11700
H217        H  0.51148092  0.21557663  0.25785390     0.11700
H218        H  0.45960823  0.27885990  0.25553443     0.11700
C219        C  0.15575924  0.44541404  0.32411194    -0.14500
C220        C  0.12657391  0.42141892  0.31111416     0.07700
C221        C  0.09446170  0.39713380  0.32188067    -0.14500
C222        C  0.09271374  0.39473359  0.34543782    -0.14500
C223        C  0.12292380  0.41699906  0.35831793     0.07700
C224        C  0.15385941  0.44336575  0.34754650    -0.14500
H225        H  0.18103317  0.46357804  0.31612771     0.11700
H226        H  0.07205505  0.37762686  0.31209809     0.11700
H227        H  0.06899382  0.37357000  0.35343868     0.11700
H228        H  0.17770653  0.46014668  0.35721746     0.11700
C229        C  0.18443496  0.39393805  0.52172570    -0.14500
C230        C  0.21692314  0.39367307  0.52205632     0.07700
C231        C  0.23269633  0.39306044  0.50155316    -0.14500
C232        C  0.21583855  0.39189699  0.48117641    -0.14500
C233        C  0.18340146  0.39231743  0.48088547     0.07700
C234        C  0.16811282  0.39375646  0.50137813    -0.14500
H235        H  0.17182516  0.39480363  0.53729533     0.11700
H236        H  0.25770381  0.39294901  0.50129617     0.11700
H237        H  0.22851333  0.39127383  0.46557824     0.11700
H238        H  0.14334598  0.39433996  0.50167564     0.11700
C239        C  0.30890888  0.44554826  0.68024227    -0.14500
C240        C  0.29721390  0.41436485  0.69306754     0.07700
C241        C  0.28876886  0.38226670  0.68220888    -0.14500
C242        C  0.28892292  0.38052842  0.65878606    -0.14500
C243        C  0.29794827  0.41098008  0.64582411     0.07700
C244        C  0.30949034  0.44388966  0.65665418    -0.14500
H245        H  0.31450377  0.47029675  0.68829778     0.11700
H246        H  0.27890697  0.35777892  0.69182323     0.11700
H247        H  0.27912720  0.35478181  0.65076164     0.11700
H248        H  0.31547214  0.46743982  0.64690682     0.11700
C249        C  0.29566338  0.02389659  0.59304868    -0.14500
C250        C  0.26244121  0.49236009  0.59105000     0.07700
C251        C  0.23117608  0.99443542  0.58997857    -0.14500
C252        C  0.23327209  0.02772794  0.58962853    -0.14500
C253        C  0.26659948  0.05935272  0.59082476     0.07700
C254        C  0.29770420  0.05718302  0.59318824    -0.14500
H255        H  0.32012475  0.52279698  0.59405301     0.11700
H256        H  0.20533742  0.47045138  0.58836582     0.11700
H257        H  0.20885057  0.02877146  0.58797836     0.11700
H258        H  0.32364342  0.08118250  0.59415347     0.11700
C259        C  0.23475729  0.24325591  0.57629255    -0.14500
C260        C  0.26819103  0.24514166  0.57762838     0.07700
C261        C  0.29921498  0.27879715  0.57862978    -0.14500
C262        C  0.29683226  0.30993308  0.57828377    -0.14500
C263        C  0.26335096  0.30799724  0.57741504     0.07700
C264        C  0.23233931  0.27435908  0.57642307    -0.14500
H265        H  0.21033010  0.21763790  0.57565808     0.11700
H266        H  0.32527818  0.28104264  0.57970919     0.11700
H267        H  0.32120172  0.33556360  0.57925134     0.11700
H268        H  0.20624267  0.27210719  0.57576620     0.11700
C269        C  0.35013478  0.16168917  0.52280935    -0.14500
C270        C  0.31730752  0.16130618  0.52300982     0.07700
C271        C  0.30140745  0.16104255  0.50244695    -0.14500
C272        C  0.31809680  0.16143308  0.48213336    -0.14500
C273        C  0.35056059  0.16111446  0.48191839     0.07700
C274        C  0.36634199  0.16108103  0.50247729    -0.14500
H275        H  0.36290447  0.16161043  0.53843990     0.11700
H276        H  0.27617697  0.16069559  0.50207736     0.11700
H277        H  0.30512424  0.16114760  0.46651218     0.11700
H278        H  0.39125818  0.16079711  0.50282058     0.11700
C279        C  0.23096219  0.02651248  0.75872408    -0.14500
C280        C  0.26430557  0.05816105  0.75762352     0.07700
C281        C  0.29555207  0.05591167  0.75684015    -0.14500
C282        C  0.29348499  0.02258712  0.75735183    -0.14500
C283        C  0.26012155  0.49095909  0.75815624     0.07700
C284        C  0.22887316  0.99318607  0.75874391    -0.14500
H285        H  0.20640945  0.02749870  0.75920667     0.11700
H286        H  0.32153669  0.07987803  0.75597971     0.11700
H287        H  0.31799828  0.52153028  0.75670733     0.11700
H288        H  0.20288551  0.46919701  0.75937497     0.11700
C289        C  0.23065649  0.24142618  0.74902616    -0.14500
C290        C  0.26396958  0.24308895  0.74933136     0.07700
C291        C  0.29539412  0.27636918  0.74909771    -0.14500
C292        C  0.29349309  0.30762820  0.74971777    -0.14500
C293        C  0.26015772  0.30594270  0.75011335     0.07700
C294        C  0.22876145  0.27268823  0.74918011    -0.14500
H295        H  0.20605985  0.21591031  0.74897505     0.11700
H296        H  0.32131602  0.27817979  0.74930374     0.11700
H297        H  0.31808656  0.33312872  0.75015911     0.11700
H298        H  0.20282337  0.27084205  0.74938614     0.11700
C299        C  0.23560277  0.16711425  0.68139752    -0.14500
C300        C  0.22682598  0.13477342  0.69207869     0.07700
C301        C  0.21527889  0.10382574  0.67908503    -0.14500
C302        C  0.21556772  0.10603496  0.65550110    -0.14500
C303        C  0.22787694  0.13927351  0.64488454     0.07700
C304        C  0.23632973  0.16939972  0.65799308    -0.14500
H305        H  0.24528745  0.19140532  0.69115194     0.11700
H306        H  0.20933232  0.07886598  0.68702061     0.11700
H307        H  0.20989670  0.08270068  0.64564601     0.11700
H308        H  0.24661866  0.19537261  0.65013644     0.11700
C309        C  0.21077913  0.36095443  0.85735351    -0.14500
C310        C  0.17798872  0.32845156  0.85748559     0.07700
C311        C  0.16215590  0.31295411  0.83689976    -0.14500
C312        C  0.17862323  0.32959309  0.81663377    -0.14500
C313        C  0.21180383  0.36162763  0.81643251     0.07700
C314        C  0.22779265  0.37712247  0.83702346    -0.14500
H315        H  0.22379822  0.37336354  0.87301835     0.11700
H316        H  0.13703849  0.28796384  0.83647322     0.11700
H317        H  0.16575284  0.31680051  0.80101414     0.11700
H318        H  0.25330609  0.40168945  0.83739433     0.11700
C319        C  0.14905208  0.35655049  0.14771243    -0.14500
C320        C  0.15008626  0.32443536  0.14754065     0.07700
C321        C  0.15188950  0.30956500  0.16810091    -0.14500
C322        C  0.15281679  0.32654789  0.18838625    -0.14500
C323        C  0.15095032  0.35823456  0.18859658     0.07700
C324        C  0.14898548  0.37301069  0.16802282    -0.14500
H325        H  0.14735665  0.36849676  0.13208614     0.11700
H326        H  0.15271034  0.28491416  0.16848055     0.11700
H327        H  0.15407680  0.31432672  0.20400287     0.11700
H328        H  0.14744649  0.39727592  0.16763908     0.11700
C329        C  0.14472534  0.23363915  0.98906640    -0.14500
C330        C  0.11648198  0.23518647  0.97853504     0.07700
C331        C  0.08847017  0.23296673  0.99168074    -0.14500
C332        C  0.09015402  0.23216970  0.01517122    -0.14500
C333        C  0.12012303  0.23415911  0.02573287     0.07700
C334        C  0.14668349  0.23340677  0.01255692    -0.14500
H335        H  0.16710923  0.23643214  0.97920354     0.11700
H336        H  0.06704707  0.23522875  0.98388864     0.11700
H337        H  0.06996477  0.23387396  0.02506938     0.11700
H338        H  0.17050552  0.23606164  0.02038314     0.11700
C339        C  0.48056641  0.23990970  0.91227270    -0.14500
C340        C  0.47761855  0.27077426  0.91246123     0.07700
C341        C  0.50892248  0.30446110  0.91327247    -0.14500
C342        C  0.04256598  0.30723681  0.91408071    -0.14500
C343        C  0.04554092  0.27638485  0.91357218     0.06500
C344        C  0.01422912  0.24270883  0.91256403    -0.14500
H345        H  0.45689291  0.21367682  0.91175210     0.11700
H346        H  0.50736344  0.32871768  0.91370689     0.11700
H347        H  0.06621402  0.33345756  0.91490135     0.11700
H348        H  0.01574030  0.21842175  0.91234288     0.11700
C349        C  0.29509620  0.30488095  0.92496741    -0.14500
C350        C  0.29303618  0.27144688  0.92306981     0.07700
C351        C  0.25959079  0.24036326  0.92200679    -0.14500
C352        C  0.22862588  0.24279943  0.92172686    -0.14500
C353        C  0.23065548  0.27628686  0.92299603     0.07700
C354        C  0.26405184  0.30726658  0.92519165    -0.14500
H355        H  0.32077631  0.32920544  0.92594607     0.11700
H356        H  0.25747419  0.21438491  0.92045313     0.11700
H357        H  0.20305130  0.21847332  0.92019998     0.11700
H358        H  0.26620964  0.33331329  0.92620200     0.11700
C359        C  0.35862022  0.23932496  0.83533456    -0.14500
C360        C  0.34535161  0.22151582  0.85585412     0.07700
C361        C  0.31514078  0.18684848  0.85563249    -0.14500
C362        C  0.29827611  0.17061039  0.83537602    -0.14500
C363        C  0.31189066  0.18831149  0.81488346     0.07700
C364        C  0.34235001  0.22270494  0.81506894    -0.14500
H365        H  0.38162380  0.26602392  0.83494534     0.11700
H366        H  0.30403608  0.17251706  0.87121538     0.11700
H367        H  0.27486729  0.14417387  0.83570312     0.11700
H368        H  0.35317023  0.23713401  0.79947318     0.11700
C369        C  0.37505108  0.23620263  0.16850327    -0.14500
C370        C  0.37624612  0.22075956  0.14803571     0.07700
C371        C  0.37822233  0.18915885  0.14839985    -0.14500
C372        C  0.37962275  0.17366231  0.16881193    -0.14500
C373        C  0.37807120  0.18890426  0.18929893     0.07700
C374        C  0.37544244  0.22016222  0.18890601    -0.14500
H375        H  0.37366945  0.26055873  0.16871913     0.11700
H376        H  0.37962434  0.17690004  0.13282826     0.11700
H377        H  0.38175191  0.14972132  0.16857682     0.11700
H378        H  0.37450343  0.23273531  0.20445162     0.11700
C379        C  0.48079699  0.23764691  0.08152168    -0.14500
C380        C  0.47869339  0.26895768  0.08185710     0.07700
C381        C  0.51021771  0.30238783  0.08135150    -0.14500
C382        C  0.04347466  0.30452236  0.08110732    -0.14500
C383        C  0.04560716  0.27325798  0.08185893     0.07700
C384        C  0.01408629  0.23979146  0.08177159    -0.14500
H385        H  0.45679999  0.21163523  0.08191751     0.11700
H386        H  0.50912788  0.32690495  0.08141979     0.11700
H387        H  0.06745739  0.33055098  0.08118444     0.11700
H388        H  0.01521820  0.21530197  0.08216713     0.11700
C389        C  0.26018588  0.23848677  0.08936966    -0.14500
C390        C  0.29381342  0.26945816  0.09058528     0.07700
C391        C  0.29585080  0.30300206  0.09166492    -0.14500
C392        C  0.26482960  0.30552668  0.09135181    -0.14500
C393        C  0.23121716  0.27450815  0.09046531     0.07700
C394        C  0.22916508  0.24097618  0.08955790    -0.14500
H395        H  0.25786478  0.21236297  0.08843993     0.11700
H396        H  0.32150124  0.32737636  0.09241224     0.11700
H397        H  0.26709076  0.33164181  0.09202993     0.11700
H398        H  0.20350716  0.21662988  0.08863644     0.11700
C399        C  0.38046053  0.31267887  0.01275235    -0.14500
C400        C  0.40499797  0.30767057  0.02533575     0.07700
C401        C  0.43304455  0.30637007  0.01425759    -0.14500
C402        C  0.43472162  0.30689112  0.99076397    -0.14500
C403        C  0.40859900  0.30913895  0.97810821     0.07700
C404        C  0.38240600  0.31365062  0.98922136    -0.14500
H405        H  0.35804808  0.31263318  0.02099440     0.11700
H406        H  0.45160509  0.30148838  0.02370346     0.11700
H407        H  0.45440840  0.30224713  0.98249018     0.11700
H408        H  0.36132111  0.31418264  0.97971017     0.11700
O409        O  0.32719955  0.73980751  0.08306257    -0.72900
O410        O  0.41543379  0.74056110  0.07714287    -0.73100
O411        O  0.36517638  0.71883160  0.10882766    -0.73000
O412        O  0.37793371  0.76035501  0.05118175    -0.73000
O413        O  0.40761730  0.81368876  0.06549874    -0.72900
O414        O  0.39118933  0.77148630  0.12415008    -0.73000
O415        O  0.44260831  0.79300150  0.09280485    -0.72900
O416        O  0.35587374  0.79358903  0.09669151    -0.73100
V417        V  0.37177574  0.74090357  0.08037863     1.35200
V418        V  0.39858844  0.79186167  0.09459718     1.35200
C419        C  0.32684649  0.76727817  0.09023312     0.76300
C420        C  0.44408384  0.76727299  0.08394068     0.76400
C421        C  0.37710319  0.73784014  0.12623364     0.76300
C422        C  0.39610523  0.79372463  0.04836695     0.76200
O423        O  0.41455911  0.74090125  0.91990339    -0.72900
O424        O  0.32773500  0.74269102  0.92728900    -0.73100
O425        O  0.35486135  0.72020843  0.89508627    -0.73000
O426        O  0.38599485  0.76195582  0.95229265    -0.73000
O427        O  0.40919287  0.81529036  0.93791795    -0.72900
O428        O  0.38120624  0.77270655  0.87948551    -0.73000
O429        O  0.35276580  0.79503334  0.91138950    -0.72900
O430        O  0.43953147  0.79470249  0.90619357    -0.73100
V431        V  0.37139170  0.74245839  0.92330554     1.35200
V432        V  0.39531597  0.79335214  0.90891220     1.35200
C433        C  0.44230788  0.76837567  0.91263807     0.76300
C434        C  0.32580016  0.76952544  0.92061399     0.76400
C435        C  0.36160533  0.73901309  0.87758455     0.76300
C436        C  0.40162705  0.79532427  0.95504780     0.76200
O437        O  0.19760707  0.80383324  0.08285275    -0.72900
O438        O  0.10880182  0.80176221  0.07664280    -0.73100
O439        O  0.15925790  0.82496918  0.10813648    -0.73000
O440        O  0.14689016  0.78190517  0.05112254    -0.73000
O441        O  0.11695705  0.72894091  0.06603293    -0.72900
O442        O  0.13423692  0.77283315  0.12422046    -0.73000
O443        O  0.08213654  0.75003177  0.09332520    -0.72900
O444        O  0.16921815  0.75014696  0.09678176    -0.73100
V445        V  0.15276306  0.80210758  0.08002395     1.35200
V446        V  0.12635017  0.75155162  0.09489879     1.35200
C447        C  0.19814686  0.77653557  0.09016500     0.76300
C448        C  0.08032902  0.77522200  0.08393503     0.76400
C449        C  0.14814155  0.80653463  0.12585714     0.76300
C450        C  0.12867532  0.74848754  0.04867347     0.76200
O451        O  0.10837849  0.80597253  0.92188023    -0.72900
O452        O  0.19561498  0.80462309  0.92837283    -0.73100
O453        O  0.16855896  0.82832688  0.89691585    -0.73000
O454        O  0.13706013  0.78362832  0.95357996    -0.73000
O455        O  0.11491711  0.73112598  0.93821896    -0.72900
O456        O  0.14196286  0.77655404  0.88047221    -0.73000
O457        O  0.17122131  0.75347108  0.91113108    -0.72900
O458        O  0.08383799  0.75263781  0.90759284    -0.73100
V459        V  0.15177407  0.80465889  0.92485056     1.35200
V460        V  0.12832091  0.75451849  0.90956571     1.35200
C461        C  0.08082770  0.77871090  0.91428374     0.76300
C462        C  0.19793592  0.77842243  0.92082157     0.76400
C463        C  0.16167861  0.81028717  0.87907818     0.76300
C464        C  0.12226594  0.75016758  0.95574251     0.76200
O465        O  0.29336603  0.62096731  0.74973669    -0.72900
O466        O  0.29237223  0.70830894  0.74437188    -0.73100
O467        O  0.31382033  0.67937006  0.77575321    -0.73000
O468        O  0.27311587  0.65171256  0.71808344    -0.73000
O469        O  0.21953969  0.62755220  0.73220474    -0.72900
O470        O  0.26106746  0.65260760  0.79107541    -0.73000
O471        O  0.23969425  0.68275811  0.75985466    -0.72900
O472        O  0.23946793  0.59558291  0.76333786    -0.73100
V473        V  0.29211410  0.66435742  0.74730416     1.35200
V474        V  0.24099193  0.63992912  0.76142821     1.35200
C475        C  0.26600750  0.59310718  0.75696936     0.76300
C476        C  0.26553102  0.71009813  0.75116249     0.76400
C477        C  0.29470311  0.67212751  0.79315846     0.76300
C478        C  0.23984993  0.63691796  0.71512934     0.76200
O479        O  0.29752104  0.71165876  0.58604029    -0.72900
O480        O  0.29493046  0.62289988  0.59523218    -0.73100
O481        O  0.31821266  0.67147570  0.56231945    -0.73000
O482        O  0.27550385  0.66311949  0.61914370    -0.73000
O483        O  0.22252750  0.63139855  0.60474306    -0.72900
O484        O  0.26605744  0.64662445  0.54645773    -0.73000
O485        O  0.24365658  0.59568173  0.57823610    -0.72900
O486        O  0.24344290  0.68256793  0.57301013    -0.73100
V487        V  0.29555213  0.66686113  0.59036289     1.35200
V488        V  0.24496838  0.63976171  0.57580090     1.35200
C489        C  0.27007803  0.71190448  0.57876351     0.76300
C490        C  0.26861303  0.59414191  0.58811994     0.76400
C491        C  0.29968033  0.66006030  0.54471328     0.76300
C492        C  0.24212563  0.64486623  0.62186526     0.76200
O493        O  0.23090649  0.92813049  0.75080217    -0.72900
O494        O  0.23150622  0.84058839  0.74590437    -0.73100
O495        O  0.21027092  0.87015823  0.77719332    -0.73000
O496        O  0.25086848  0.89686952  0.71929620    -0.73000
O497        O  0.30447299  0.92141780  0.73319590    -0.72900
O498        O  0.26300090  0.89637174  0.79230681    -0.73000
O499        O  0.28436812  0.86617359  0.76091641    -0.72900
O500        O  0.28468153  0.95343778  0.76440543    -0.73100
V501        V  0.23194865  0.88464454  0.74862926     1.35200
V502        V  0.28308030  0.90903065  0.76253619     1.35200
C503        C  0.25827591  0.95597431  0.75791096     0.76300
C504        C  0.25847004  0.83883657  0.75236341     0.76400
C505        C  0.22930455  0.87731757  0.79455950     0.76300
C506        C  0.28413914  0.91188966  0.71619842     0.76200
O507        O  0.23315609  0.84081209  0.58513042    -0.72900
O508        O  0.23426789  0.92875717  0.59455085    -0.73100
O509        O  0.21384782  0.88163224  0.56109147    -0.73000
O510        O  0.25230061  0.88787877  0.61887015    -0.73000
O511        O  0.30627541  0.92024340  0.60583253    -0.72900
O512        O  0.26705802  0.90776703  0.54644337    -0.73000
O513        O  0.28693339  0.95708633  0.57911425    -0.72900
O514        O  0.28804992  0.87068507  0.57332359    -0.73100
V515        V  0.23443130  0.88522215  0.58960767     1.35200
V516        V  0.28603099  0.91323209  0.57633261     1.35200
C517        C  0.26117538  0.84105881  0.57845684     0.76300
C518        C  0.26103634  0.95791762  0.58827968     0.76400
C519        C  0.23352396  0.89412399  0.54395948     0.76300
C520        C  0.28542566  0.90610016  0.62244609     0.76200
O521        O  0.20063456  0.92711253  0.25251413    -0.72900
O522        O  0.11192410  0.84048926  0.26036143    -0.73100
O523        O  0.16127218  0.86722785  0.22788596    -0.73000
O524        O  0.15128984  0.89898459  0.28513826    -0.73000
O525        O  0.12044383  0.92143369  0.27092357    -0.72900
O526        O  0.13591819  0.89433208  0.21232816    -0.73000
O527        O  0.08481578  0.86531051  0.24405435    -0.72900
O528        O  0.17177526  0.95232365  0.23933934    -0.73100
V529        V  0.15586846  0.88404637  0.25614001     1.35200
V530        V  0.12895392  0.90800030  0.24183457     1.35200
C531        C  0.20094387  0.95495747  0.24541969     0.76300
C532        C  0.08321446  0.83845316  0.25352515     0.76400
C533        C  0.14967901  0.87443116  0.21037685     0.76300
C534        C  0.13315952  0.91420408  0.28800069     0.76200
O535        O  0.11323077  0.83988870  0.41722984    -0.72900
O536        O  0.20001566  0.92857212  0.40925476    -0.73100
O537        O  0.17311294  0.87965740  0.44186169    -0.73000
O538        O  0.14196635  0.88929816  0.38435994    -0.73000
O539        O  0.11813764  0.91903363  0.39845396    -0.72900
O540        O  0.14684091  0.90621134  0.45704616    -0.73000
O541        O  0.17473048  0.95599126  0.42463838    -0.72900
O542        O  0.08830587  0.86881574  0.43083278    -0.73100
V543        V  0.15638701  0.88467781  0.41349963     1.35200
V544        V  0.13232285  0.91174396  0.42755624     1.35200
C545        C  0.08558393  0.83955942  0.42480318     0.76300
C546        C  0.20182810  0.95744126  0.41559549     0.76400
C547        C  0.16663986  0.89239465  0.45915318     0.76300
C548        C  0.12664063  0.90730510  0.38140240     0.76200
O549        O  0.32959174  0.62086222  0.25355395    -0.72900
O550        O  0.41776515  0.70812452  0.26090870    -0.73100
O551        O  0.36840461  0.68060196  0.22867521    -0.73000
O552        O  0.37894037  0.64970324  0.28604549    -0.73000
O553        O  0.41013103  0.62755849  0.27182242    -0.72900
O554        O  0.39432876  0.65394970  0.21316352    -0.73000
O555        O  0.44535370  0.68359764  0.24473596    -0.72900
O556        O  0.35892856  0.59607624  0.24038367    -0.73100
V557        V  0.37409690  0.66422711  0.25697537     1.35200
V558        V  0.40146802  0.64064047  0.24270859     1.35200
C559        C  0.32958670  0.59319829  0.24639791     0.76300
C560        C  0.44662050  0.71039843  0.25405423     0.76400
C561        C  0.38007886  0.67339701  0.21116378     0.76300
C562        C  0.39739408  0.63484319  0.28891281     0.76200
O563        O  0.41983411  0.71082098  0.41786072    -0.72900
O564        O  0.33239244  0.62292049  0.41034013    -0.73100
O565        O  0.35999423  0.67206621  0.44272346    -0.73000
O566        O  0.39060302  0.66133833  0.38522227    -0.73000
O567        O  0.41307441  0.63043494  0.39934889    -0.72900
O568        O  0.38605496  0.64548785  0.45806648    -0.73000
O569        O  0.35672058  0.59489799  0.42609562    -0.72900
O570        O  0.44430810  0.68129911  0.43112066    -0.73100
V571        V  0.37636171  0.66641694  0.41436780     1.35200
V572        V  0.39972423  0.63878531  0.42848889     1.35200
C573        C  0.44735083  0.71072003  0.42513366     0.76300
C574        C  0.33004192  0.59387846  0.41681120     0.76400
C575        C  0.36671342  0.65984242  0.46013505     0.76300
C576        C  0.40515896  0.64260061  0.38228431     0.76200
C577        C  0.43635163  0.65399901  0.32247732    -0.14500
C578        C  0.40467293  0.62841721  0.31202306     0.07700
C579        C  0.37633569  0.60339570  0.32529468    -0.14500
C580        C  0.37862982  0.60550766  0.34873501    -0.14500
C581        C  0.40904427  0.63299791  0.35920128     0.07700
C582        C  0.43843100  0.65648796  0.34599684    -0.14500
H583        H  0.45802873  0.67427176  0.31248841     0.11700
H584        H  0.35133116  0.58421317  0.31755312     0.11700
H585        H  0.35530995  0.58781251  0.35866172     0.11700
H586        H  0.46163435  0.67852862  0.35375754     0.11700
C587        C  0.26802650  0.49455437  0.41146840    -0.14500
C588        C  0.23460030  0.99226609  0.41309139     0.07700
C589        C  0.23269886  0.52383010  0.41393907    -0.14500
C590        C  0.26379923  0.55716311  0.41410143    -0.14500
C591        C  0.29721901  0.55934250  0.41386687     0.07700
C592        C  0.29915177  0.52788453  0.41209432    -0.14500
H593        H  0.27012943  0.97061364  0.41074123     0.11700
H594        H  0.20712600  0.02270996  0.41498151     0.11700
H595        H  0.26174478  0.58108722  0.41541863     0.11700
H596        H  0.32478824  0.52907026  0.41161913     0.11700
C597        C  0.04766643  0.77263408  0.42496100    -0.14500
C598        C  0.05042196  0.80636535  0.42594854     0.07700
C599        C  0.01893622  0.80840429  0.42728252    -0.14500
C600        C  0.48536853  0.77739983  0.42706861    -0.14500
C601        C  0.48262352  0.74369788  0.42604234     0.07700
C602        C  0.51408772  0.74158745  0.42526486    -0.14500
H603        H  0.07142745  0.77026661  0.42392779     0.11700
H604        H  0.02021740  0.83407962  0.42795224     0.11700
H605        H  0.46158314  0.77976884  0.42773096     0.11700
H606        H  0.51271206  0.71588282  0.42433538     0.11700
C607        C  0.23191007  0.52167471  0.24465914    -0.14500
C608        C  0.23402113  0.99018231  0.24492285     0.07700
C609        C  0.26773018  0.49290406  0.24545051    -0.14500
C610        C  0.29872820  0.52648410  0.24551358    -0.14500
C611        C  0.29659053  0.55796207  0.24555361     0.07700
C612        C  0.26288585  0.55524088  0.24521694    -0.14500
H613        H  0.20621527  0.02036315  0.24446810     0.11700
H614        H  0.27011677  0.96911056  0.24573570     0.11700
H615        H  0.32442598  0.52782039  0.24595445     0.11700
H616        H  0.26049127  0.57903578  0.24526360     0.11700
C617        C  0.01690863  0.80780023  0.25592034    -0.14500
C618        C  0.04840329  0.80576512  0.25615582     0.07700
C619        C  0.04607722  0.77231167  0.25759565    -0.14500
C620        C  0.51271175  0.74124616  0.25751418    -0.14500
C621        C  0.48125267  0.74326076  0.25649320     0.07700
C622        C  0.48352823  0.77674342  0.25633091    -0.14500
H623        H  0.01811842  0.83343333  0.25502298     0.11700
H624        H  0.06998793  0.77013950  0.25782623     0.11700
H625        H  0.51148252  0.71557666  0.25785318     0.11700
H626        H  0.45960833  0.77885853  0.25553398     0.11700
C627        C  0.15575982  0.94541435  0.32411262    -0.14500
C628        C  0.12657400  0.92141998  0.31111490     0.07700
C629        C  0.09446154  0.89713562  0.32188149    -0.14500
C630        C  0.09271379  0.89473523  0.34543863    -0.14500
C631        C  0.12292430  0.91699975  0.35831865     0.07700
C632        C  0.15386023  0.94336584  0.34754717    -0.14500
H633        H  0.18103387  0.96357784  0.31612831     0.11700
H634        H  0.07205445  0.87762928  0.31209892     0.11700
H635        H  0.06899353  0.87357209  0.35343952     0.11700
H636        H  0.17770758  0.96014605  0.35721806     0.11700
C637        C  0.18443577  0.89393834  0.52172609    -0.14500
C638        C  0.21692371  0.89367293  0.52205685     0.07700
C639        C  0.23269684  0.89305991  0.50155375    -0.14500
C640        C  0.21583915  0.89189645  0.48117694    -0.14500
C641        C  0.18340226  0.89231730  0.48088589     0.07700
C642        C  0.16811375  0.89375676  0.50137850    -0.14500
H643        H  0.17182601  0.89480428  0.53729570     0.11700
H644        H  0.25770415  0.89294813  0.50129689     0.11700
H645        H  0.22851386  0.89127297  0.46557880     0.11700
H646        H  0.14334710  0.89434062  0.50167592     0.11700
C647        C  0.30890655  0.94554748  0.68024375    -0.14500
C648        C  0.29721154  0.91436398  0.69306895     0.07700
C649        C  0.28876656  0.88226596  0.68221015    -0.14500
C650        C  0.28892094  0.88052786  0.65878734    -0.14500
C651        C  0.29794647  0.91097961  0.64582544     0.07700
C652        C  0.30948828  0.94388906  0.65665564    -0.14500
H653        H  0.31450136  0.97029590  0.68829932     0.11700
H654        H  0.27890462  0.85777805  0.69182448     0.11700
H655        H  0.27912539  0.85478128  0.65076282     0.11700
H656        H  0.31547020  0.96743936  0.64690831     0.11700
C657        C  0.29566337  0.52389665  0.59304868    -0.14500
C658        C  0.26244113  0.99236013  0.59105000     0.07700
C659        C  0.23117596  0.49443511  0.58997908    -0.14500
C660        C  0.23327165  0.52772753  0.58962955    -0.14500
C661        C  0.26659900  0.55935243  0.59082574     0.07700
C662        C  0.29770388  0.55718294  0.59318872    -0.14500
H663        H  0.32012466  0.02279670  0.59405340     0.11700
H664        H  0.20533743  0.97045173  0.58836529     0.11700
H665        H  0.20885010  0.52877087  0.58797971     0.11700
H666        H  0.32364305  0.58118252  0.59415388     0.11700
C667        C  0.23475658  0.74325545  0.57629358    -0.14500
C668        C  0.26819034  0.74514118  0.57762903     0.07700
C669        C  0.29921432  0.77879664  0.57863026    -0.14500
C670        C  0.29683162  0.80993257  0.57828444    -0.14500
C671        C  0.26335031  0.80799677  0.57741608     0.07700
C672        C  0.23233860  0.77435864  0.57642426    -0.14500
H673        H  0.21032935  0.71763742  0.57565931     0.11700
H674        H  0.32527754  0.78104210  0.57970941     0.11700
H675        H  0.32120113  0.83556306  0.57925185     0.11700
H676        H  0.20624199  0.77210678  0.57576768     0.11700
C677        C  0.35013279  0.66168672  0.52281005    -0.14500
C678        C  0.31730588  0.66130446  0.52301049     0.07700
C679        C  0.30140628  0.66104170  0.50244761    -0.14500
C680        C  0.31809578  0.66143241  0.48213403    -0.14500
C681        C  0.35055924  0.66111312  0.48191908     0.07700
C682        C  0.36634012  0.66107875  0.50247800    -0.14500
H683        H  0.36290219  0.66160743  0.53844060     0.11700
H684        H  0.27617615  0.66069548  0.50207799     0.11700
H685        H  0.30512361  0.66114768  0.46651283     0.11700
H686        H  0.39125603  0.66079431  0.50282133     0.11700
C687        C  0.23096506  0.52651359  0.75872329    -0.14500
C688        C  0.26430844  0.55816218  0.75762262     0.07700
C689        C  0.29555494  0.55591283  0.75683882    -0.14500
C690        C  0.29348788  0.52258829  0.75735035    -0.14500
C691        C  0.26011863  0.99095792  0.75815744     0.07700
C692        C  0.22887612  0.49318726  0.75874303    -0.14500
H693        H  0.20641240  0.52749975  0.75920612     0.11700
H694        H  0.32153953  0.57987923  0.75597823     0.11700
H695        H  0.31799532  0.02152914  0.75670912     0.11700
H696        H  0.20288264  0.96919587  0.75937568     0.11700
C697        C  0.23065675  0.74142590  0.74902971    -0.14500
C698        C  0.26397015  0.74308928  0.74933439     0.07700
C699        C  0.29539436  0.77636980  0.74910008    -0.14500
C700        C  0.29349267  0.80762850  0.74971980    -0.14500
C701        C  0.26015704  0.80594243  0.75011575     0.07700
C702        C  0.22876107  0.77268762  0.74918340    -0.14500
H703        H  0.20606035  0.71590983  0.74897908     0.11700
H704        H  0.32131640  0.77818091  0.74930570     0.11700
H705        H  0.31808594  0.83312928  0.75016055     0.11700
H706        H  0.20282278  0.77084097  0.74938982     0.11700
C707        C  0.23560709  0.66711792  0.68139855    -0.14500
C708        C  0.22682772  0.63477657  0.69207996     0.07700
C709        C  0.21527740  0.60382815  0.67908654    -0.14500
C710        C  0.21556574  0.60603692  0.65550258    -0.14500
C711        C  0.22787757  0.63927572  0.64488577     0.07700
C712        C  0.23633348  0.66940291  0.65799412    -0.14500
H713        H  0.24529409  0.69140948  0.69115278     0.11700
H714        H  0.20932867  0.57886786  0.68702229     0.11700
H715        H  0.20989224  0.58270183  0.64564764     0.11700
H716        H  0.24662437  0.69537589  0.65013730     0.11700
C717        C  0.21077705  0.86095425  0.85735526    -0.14500
C718        C  0.17798655  0.82845143  0.85748731     0.07700
C719        C  0.16215385  0.81295389  0.83690149    -0.14500
C720        C  0.17862135  0.82959271  0.81663550    -0.14500
C721        C  0.21180202  0.86162718  0.81643422     0.07700
C722        C  0.22779076  0.87712216  0.83702519    -0.14500
H723        H  0.22379609  0.87336329  0.87302005     0.11700
H724        H  0.13703647  0.78796362  0.83647495     0.11700
H725        H  0.16575099  0.81680000  0.80101588     0.11700
H726        H  0.25330415  0.90168904  0.83739607     0.11700
C727        C  0.14904882  0.85654999  0.14771305    -0.14500
C728        C  0.15008372  0.82443524  0.14754134     0.07700
C729        C  0.15188805  0.80956556  0.16810161    -0.14500
C730        C  0.15281569  0.82654870  0.18838689    -0.14500
C731        C  0.15094861  0.85823505  0.18859716     0.07700
C732        C  0.14898268  0.87301050  0.16802341    -0.14500
H733        H  0.14735261  0.86849576  0.13208673     0.11700
H734        H  0.15270951  0.78491501  0.16848129     0.11700
H735        H  0.15407648  0.81432801  0.20400351     0.11700
H736        H  0.14744320  0.89727550  0.16763965     0.11700
C737        C  0.14473581  0.73364778  0.98906791    -0.14500
C738        C  0.11648707  0.73518486  0.97853639     0.07700
C739        C  0.08847046  0.73295474  0.99168186    -0.14500
C740        C  0.09015428  0.73215774  0.01517242    -0.14500
C741        C  0.12012790  0.73415754  0.02573420     0.07700
C742        C  0.14669371  0.73341537  0.01255835    -0.14500
H743        H  0.16712302  0.73644868  0.97920526     0.11700
H744        H  0.06704291  0.73520885  0.98388961     0.11700
H745        H  0.06996060  0.73385416  0.02507050     0.11700
H746        H  0.17051894  0.73607820  0.02038468     0.11700
C747        C  0.48056585  0.73990815  0.91227673    -0.14500
C748        C  0.47761801  0.77077266  0.91246582     0.07700
C749        C  0.50892181  0.80445951  0.91327759    -0.14500
C750        C  0.04256524  0.80723512  0.91408591    -0.14500
C751        C  0.04554030  0.77638329  0.91357675     0.06500
C752        C  0.01422860  0.74270717  0.91256875    -0.14500
H753        H  0.45689228  0.71367522  0.91175565     0.11700
H754        H  0.50736266  0.82871601  0.91371245     0.11700
H755        H  0.06621329  0.83345599  0.91490652     0.11700
H756        H  0.01573995  0.71842018  0.91234721     0.11700
C757        C  0.29509604  0.80488025  0.92496584    -0.14500
C758        C  0.29303583  0.77144608  0.92306834     0.07700
C759        C  0.25959041  0.74036252  0.92200560    -0.14500
C760        C  0.22862560  0.74279876  0.92172602    -0.14500
C761        C  0.23065536  0.77628623  0.92299518     0.07700
C762        C  0.26405177  0.80726601  0.92519033    -0.14500
H763        H  0.32077622  0.82920474  0.92594443     0.11700
H764        H  0.25747370  0.71438407  0.92045213     0.11700
H765        H  0.20305095  0.71847263  0.92019952     0.11700
H766        H  0.26620961  0.83331270  0.92620066     0.11700
C767        C  0.35862250  0.73932261  0.83533623    -0.14500
C768        C  0.34535419  0.72151296  0.85585566     0.07700
C769        C  0.31514375  0.68684534  0.85563385    -0.14500
C770        C  0.29827904  0.67060773  0.83537728    -0.14500
C771        C  0.31189316  0.68830953  0.81488486     0.07700
C772        C  0.34235234  0.72270307  0.81507054    -0.14500
H773        H  0.38162575  0.76602189  0.83494715     0.11700
H774        H  0.30403929  0.67251358  0.87121662     0.11700
H775        H  0.27487033  0.64417102  0.83570420     0.11700
H776        H  0.35317228  0.73713260  0.79947492     0.11700
C777        C  0.37505192  0.73619998  0.16850303    -0.14500
C778        C  0.37624792  0.72075760  0.14803544     0.07700
C779        C  0.37822492  0.68915729  0.14839948    -0.14500
C780        C  0.37962527  0.67366067  0.16881158    -0.14500
C781        C  0.37807276  0.68890197  0.18929861     0.07700
C782        C  0.37544327  0.72015954  0.18890573    -0.14500
H783        H  0.37366958  0.76055582  0.16871898     0.11700
H784        H  0.37962751  0.67689895  0.13282787     0.11700
H785        H  0.38175505  0.64971992  0.16857643     0.11700
H786        H  0.37450363  0.73273225  0.20445131     0.11700
C787        C  0.48079657  0.73764682  0.08151853    -0.14500
C788        C  0.47869302  0.76895762  0.08185449     0.07700
C789        C  0.51021744  0.80238772  0.08134920    -0.14500
C790        C  0.04347421  0.80452189  0.08110507    -0.14500
C791        C  0.04560669  0.77325753  0.08185716     0.07700
C792        C  0.01408575  0.73979102  0.08176969    -0.14500
H793        H  0.45679951  0.71163519  0.08191407     0.11700
H794        H  0.50912770  0.82690487  0.08141785     0.11700
H795        H  0.06745701  0.83055055  0.08118234     0.11700
H796        H  0.01521762  0.71530151  0.08216566     0.11700
C797        C  0.26018515  0.73848576  0.08937254    -0.14500
C798        C  0.29381276  0.76945706  0.09058870     0.07700
C799        C  0.29585006  0.80300089  0.09166906    -0.14500
C800        C  0.26482884  0.80552553  0.09135588    -0.14500
C801        C  0.23121634  0.77450713  0.09046867     0.07700
C802        C  0.22916435  0.74097525  0.08956076    -0.14500
H803        H  0.25786404  0.71236204  0.08844221     0.11700
H804        H  0.32150045  0.82737512  0.09241679     0.11700
H805        H  0.26709007  0.83164077  0.09203432     0.11700
H806        H  0.20350635  0.71662893  0.08863871     0.11700
C807        C  0.38043859  0.81265949  0.01275304    -0.14500
C808        C  0.40498921  0.80767263  0.02533682     0.07700
C809        C  0.43304717  0.80639282  0.01425893    -0.14500
C810        C  0.43472379  0.80691312  0.99076515    -0.14500
C811        C  0.40858949  0.80913996  0.97810928     0.07700
C812        C  0.38238357  0.81363090  0.98922221    -0.14500
H813        H  0.35801777  0.81259746  0.02099489     0.11700
H814        H  0.45161807  0.80152703  0.02370510     0.11700
H815        H  0.45442091  0.80228460  0.98249146     0.11700
H816        H  0.36129033  0.81414653  0.97971100     0.11700
O817        O  0.82720018  0.23980832  0.08305922    -0.72900
O818        O  0.91543395  0.24055976  0.07714492    -0.73100
O819        O  0.86517359  0.21883218  0.10882756    -0.73000
O820        O  0.87793781  0.26035365  0.05118058    -0.73000
O821        O  0.90761774  0.31368801  0.06549714    -0.72900
O822        O  0.89118843  0.27148744  0.12414923    -0.73000
O823        O  0.94260814  0.29300187  0.09280467    -0.72900
O824        O  0.85587343  0.29358917  0.09668929    -0.73100
V825        V  0.87177615  0.24090329  0.08037799     1.35200
V826        V  0.89858817  0.29186187  0.09459597     1.35200
C827        C  0.82684676  0.26727881  0.09022976     0.76300
C828        C  0.94408383  0.26727239  0.08394217     0.76400
C829        C  0.87710101  0.23784123  0.12623330     0.76300
C830        C  0.89610889  0.29372322  0.04836545     0.76200
O831        O  0.91456114  0.24090455  0.91989808    -0.72900
O832        O  0.82773733  0.24269361  0.92728835    -0.73100
O833        O  0.85486150  0.22021282  0.89508324    -0.73000
O834        O  0.88599971  0.26195722  0.95228977    -0.73000
O835        O  0.90919439  0.31529245  0.93791660    -0.72900
O836        O  0.88120641  0.27271150  0.87948327    -0.73000
O837        O  0.85276630  0.29503598  0.91138899    -0.72900
O838        O  0.93953287  0.29470710  0.90619040    -0.73100
V839        V  0.87139391  0.24246135  0.92330259     1.35200
V840        V  0.89531688  0.29335576  0.90891035     1.35200
C841        C  0.94230970  0.26837980  0.91263334     0.76300
C842        C  0.82580141  0.26952768  0.92061383     0.76400
C843        C  0.86160519  0.23901812  0.87758186     0.76300
C844        C  0.90163152  0.29532545  0.95504581     0.76200
O845        O  0.69760759  0.30383413  0.08284937    -0.72900
O846        O  0.60880223  0.30176382  0.07664368    -0.73100
O847        O  0.65926118  0.32497047  0.10813548    -0.73000
O848        O  0.64688752  0.28190645  0.05112106    -0.73000
O849        O  0.61695744  0.22894209  0.06603168    -0.72900
O850        O  0.63423960  0.27283429  0.12421930    -0.73000
O851        O  0.58213790  0.25003258  0.09332512    -0.72900
O852        O  0.66921987  0.25014856  0.09677952    -0.73100
V853        V  0.65276354  0.30210884  0.08002270     1.35200
V854        V  0.62635173  0.25155283  0.09489759     1.35200
C855        C  0.69814794  0.27653679  0.09016169     0.76300
C856        C  0.58032986  0.27522320  0.08393596     0.76400
C857        C  0.64814494  0.30653582  0.12585611     0.76300
C858        C  0.62867308  0.24848878  0.04867209     0.76200
O859        O  0.60837762  0.30597192  0.92187655    -0.72900
O860        O  0.69561364  0.30462221  0.92837248    -0.73100
O861        O  0.66855958  0.32832550  0.89691388    -0.73000
O862        O  0.63705685  0.28362817  0.95357798    -0.73000
O863        O  0.61491627  0.23112561  0.93821766    -0.72900
O864        O  0.64196320  0.27655239  0.88047056    -0.73000
O865        O  0.67122129  0.25347044  0.91113051    -0.72900
O866        O  0.58383748  0.25263636  0.90759050    -0.73100
V867        V  0.65177294  0.30465813  0.92484858     1.35200
V868        V  0.62832063  0.25451744  0.90956423     1.35200
C869        C  0.58082697  0.27870985  0.91428032     0.76300
C870        C  0.69793534  0.27842183  0.92082145     0.76400
C871        C  0.66167924  0.31028548  0.87907634     0.76300
C872        C  0.62226297  0.25016752  0.95574094     0.76200
O873        O  0.79336455  0.12096624  0.74973735    -0.72900
O874        O  0.79236939  0.20830662  0.74436718    -0.73100
O875        O  0.81381896  0.17937244  0.77575075    -0.73000
O876        O  0.77311286  0.15170647  0.71808175    -0.73000
O877        O  0.71953725  0.12754992  0.73220364    -0.72900
O878        O  0.76106657  0.15260947  0.79107360    -0.73000
O879        O  0.73969280  0.18275789  0.75985178    -0.72900
O880        O  0.73946599  0.09558256  0.76333775    -0.73100
V881        V  0.79211196  0.16435575  0.74730213     1.35200
V882        V  0.74099023  0.13992885  0.76142674     1.35200
C883        C  0.76600575  0.09310644  0.75697014     0.76300
C884        C  0.76552887  0.21009680  0.75115813     0.76400
C885        C  0.79470215  0.17213054  0.79315617     0.76300
C886        C  0.73984684  0.13691224  0.71512802     0.76200
O887        O  0.79752214  0.21165975  0.58604113    -0.72900
O888        O  0.79493210  0.12290076  0.59523114    -0.73100
O889        O  0.81821528  0.17147855  0.56231941    -0.73000
O890        O  0.77550374  0.16311790  0.61914348    -0.73000
O891        O  0.72252823  0.13139791  0.60474147    -0.72900
O892        O  0.76606064  0.14662764  0.54645695    -0.73000
O893        O  0.74365893  0.09568328  0.57823420    -0.72900
O894        O  0.74344473  0.18256937  0.57300980    -0.73100
V895        V  0.79555349  0.16686203  0.59036274     1.35200
V896        V  0.74497043  0.13976317  0.57579977     1.35200
C897        C  0.77007947  0.21190570  0.57876394     0.76300
C898        C  0.76861492  0.09414307  0.58811839     0.76400
C899        C  0.79968358  0.16006379  0.54471293     0.76300
C900        C  0.74212541  0.14486359  0.62186424     0.76200
O901        O  0.73090821  0.42813146  0.75080132    -0.72900
O902        O  0.73150613  0.34058864  0.74590182    -0.73100
O903        O  0.71027142  0.37015793  0.77719155    -0.73000
O904        O  0.75086968  0.39687109  0.71929463    -0.73000
O905        O  0.80447394  0.42141754  0.73319457    -0.72900
O906        O  0.76300131  0.39637033  0.79230515    -0.73000
O907        O  0.78436781  0.36617230  0.76091411    -0.72900
O908        O  0.78468320  0.45343745  0.76440459    -0.73100
V909        V  0.73194946  0.38464512  0.74862759     1.35200
V910        V  0.78308095  0.40902984  0.76253468     1.35200
C911        C  0.75827794  0.45597479  0.75791032     0.76300
C912        C  0.75846963  0.33883598  0.75236056     0.76400
C913        C  0.72930494  0.37731649  0.79455773     0.76300
C914        C  0.78414035  0.41189049  0.71619701     0.76200
O915        O  0.73315728  0.34081321  0.58512946    -0.72900
O916        O  0.73426940  0.42875829  0.59455030    -0.73100
O917        O  0.71384885  0.38163350  0.56109081    -0.73000
O918        O  0.75230224  0.38787974  0.61886922    -0.73000
O919        O  0.80627687  0.42024433  0.60583133    -0.72900
O920        O  0.76705886  0.40776830  0.54644245    -0.73000
O921        O  0.78693471  0.45708741  0.57911345    -0.72900
O922        O  0.78805094  0.37068608  0.57332232    -0.73100
V923        V  0.73443262  0.38522326  0.58960687     1.35200
V924        V  0.78603215  0.41323315  0.57633156     1.35200
C925        C  0.76117652  0.34105989  0.57845582     0.76300
C926        C  0.76103784  0.45791874  0.58827912     0.76400
C927        C  0.73352478  0.39412536  0.54395875     0.76300
C928        C  0.78542733  0.40610112  0.62244497     0.76200
O929        O  0.70063557  0.42711081  0.25251369    -0.72900
O930        O  0.61192448  0.34048822  0.26036102    -0.73100
O931        O  0.66127299  0.36722634  0.22788554    -0.73000
O932        O  0.65129058  0.39898350  0.28513774    -0.73000
O933        O  0.62044496  0.42143282  0.27092279    -0.72900
O934        O  0.63591980  0.39433118  0.21232752    -0.73000
O935        O  0.58481682  0.36530980  0.24405352    -0.72900
O936        O  0.67177678  0.45232240  0.23933879    -0.73100
V937        V  0.65586919  0.38404499  0.25613955     1.35200
V938        V  0.62895521  0.40799932  0.24183388     1.35200
C939        C  0.70094521  0.45495589  0.24541919     0.76300
C940        C  0.58321504  0.33845247  0.25352464     0.76400
C941        C  0.64968057  0.37443021  0.21037631     0.76300
C942        C  0.63316044  0.41420323  0.28800002     0.76200
O943        O  0.61323059  0.33988910  0.41722936    -0.72900
O944        O  0.70001549  0.42857264  0.40925472    -0.73100
O945        O  0.67311247  0.37965790  0.44186145    -0.73000
O946        O  0.64196661  0.38929870  0.38435954    -0.73000
O947        O  0.61813717  0.41903368  0.39845328    -0.72900
O948        O  0.64684046  0.40621202  0.45704572    -0.73000
O949        O  0.67472979  0.45599170  0.42463778    -0.72900
O950        O  0.58830548  0.36881595  0.43083227    -0.73100
V951        V  0.65638682  0.38467828  0.41349933     1.35200
V952        V  0.63232232  0.41174429  0.42755569     1.35200
C953        C  0.58558368  0.33955969  0.42480267     0.76300
C954        C  0.70182770  0.45744174  0.41559530     0.76400
C955        C  0.66663953  0.39239547  0.45915284     0.76300
C956        C  0.62664073  0.40730545  0.38140181     0.76200
O957        O  0.82959060  0.12086372  0.25355423    -0.72900
O958        O  0.91776434  0.20812589  0.26090850    -0.73100
O959        O  0.86840301  0.18060370  0.22867538    -0.73000
O960        O  0.87894009  0.14970455  0.28604530    -0.73000
O961        O  0.91013001  0.12755947  0.27182150    -0.72900
O962        O  0.89432703  0.15395169  0.21316316    -0.73000
O963        O  0.94535248  0.18359897  0.24473527    -0.72900
O964        O  0.85892703  0.09607788  0.24038312    -0.73100
V965        V  0.87409593  0.16422859  0.25697536     1.35200
V966        V  0.90146664  0.14064196  0.24270796     1.35200
C967        C  0.82958535  0.09319983  0.24639789     0.76300
C968        C  0.94661953  0.21039970  0.25405382     0.76400
C969        C  0.88007702  0.17339895  0.21116375     0.76300
C970        C  0.89739374  0.13484432  0.28891216     0.76200
O971        O  0.91983431  0.21082075  0.41785972    -0.72900
O972        O  0.83239257  0.12292021  0.41033950    -0.73100
O973        O  0.85999464  0.17206632  0.44272268    -0.73000
O974        O  0.89060309  0.16133797  0.38522150    -0.73000
O975        O  0.91307427  0.13043444  0.39934817    -0.72900
O976        O  0.88605570  0.14548831  0.45806577    -0.73000
O977        O  0.85672071  0.09489784  0.42609515    -0.72900
O978        O  0.94430843  0.18129898  0.43111965    -0.73100
V979        V  0.87636187  0.16641672  0.41436701     1.35200
V980        V  0.89972446  0.13878519  0.42848816     1.35200
C981        C  0.94735111  0.21071983  0.42513252     0.76300
C982        C  0.83004207  0.09387821  0.41681063     0.76400
C983        C  0.86671439  0.15984313  0.46013436     0.76300
C984        C  0.90515908  0.14260030  0.38228357     0.76200
C985        C  0.93635145  0.15400231  0.32247651    -0.14500
C986        C  0.90467375  0.12841869  0.31202222     0.07700
C987        C  0.87633798  0.10339499  0.32529381    -0.14500
C988        C  0.87863228  0.10550653  0.34873415    -0.14500
C989        C  0.90904540  0.13299845  0.35920050     0.07700
C990        C  0.93843095  0.15649083  0.34599602    -0.14500
H991        H  0.95802741  0.17427672  0.31248762     0.11700
H992        H  0.85133404  0.08421080  0.31755221     0.11700
H993        H  0.85531314  0.08780952  0.35866090     0.11700
H994        H  0.96163314  0.17853277  0.35375673     0.11700
C995        C  0.76802663  0.99455398  0.41146816    -0.14500
C996        C  0.73460002  0.49226658  0.41309161     0.07700
C997        C  0.73269905  0.02382983  0.41393809    -0.14500
C998        C  0.76379941  0.05716281  0.41410053    -0.14500
C999        C  0.79721918  0.05934219  0.41386626     0.07700
C1000       C  0.79915193  0.02788417  0.41209401    -0.14500
H1001       H  0.77012909  0.47061399  0.41074215     0.11700
H1002       H  0.70712585  0.52271061  0.41498124     0.11700
H1003       H  0.76174496  0.08108698  0.41541756     0.11700
H1004       H  0.82478838  0.02906988  0.41161906     0.11700
C1005       C  0.54766631  0.27263430  0.42496049    -0.14500
C1006       C  0.55042174  0.30636554  0.42594802     0.07700
C1007       C  0.51893591  0.30840433  0.42728202    -0.14500
C1008       C  0.98536850  0.27739959  0.42706694    -0.14500
C1009       C  0.98262374  0.24369770  0.42604099     0.07700
C1010       C  0.01408798  0.24158737  0.42526370    -0.14500
H1011       H  0.57142733  0.27026690  0.42392729     0.11700
H1012       H  0.52021697  0.33407963  0.42795175     0.11700
H1013       H  0.96158315  0.27976846  0.42772910     0.11700
H1014       H  0.01271247  0.21588278  0.42433446     0.11700
C1015       C  0.73190877  0.02167570  0.24465983    -0.14500
C1016       C  0.73402263  0.49018054  0.24492237     0.07700
C1017       C  0.76772933  0.99290554  0.24545068    -0.14500
C1018       C  0.79872714  0.02648568  0.24551359    -0.14500
C1019       C  0.79658923  0.05796352  0.24555380     0.07700
C1020       C  0.76288441  0.05524201  0.24521746    -0.14500
H1021       H  0.70621703  0.52036160  0.24446630     0.11700
H1022       H  0.77011799  0.46910849  0.24573659     0.11700
H1023       H  0.82442510  0.02782219  0.24595422     0.11700
H1024       H  0.76048960  0.07903686  0.24526426     0.11700
C1025       C  0.51690930  0.30780080  0.25592038    -0.14500
C1026       C  0.54840355  0.30576493  0.25615564     0.07700
C1027       C  0.54607673  0.27231120  0.25759561    -0.14500
C1028       C  0.01271064  0.24124675  0.25751405    -0.14500
C1029       C  0.98125183  0.24326177  0.25649296     0.07700
C1030       C  0.98352784  0.27674464  0.25633071    -0.14500
H1031       H  0.51811969  0.33343425  0.25502299     0.11700
H1032       H  0.56998716  0.27013846  0.25782604     0.11700
H1033       H  0.01148103  0.21557695  0.25785301     0.11700
H1034       H  0.95960810  0.27886007  0.25553370     0.11700
C1035       C  0.65576105  0.44541359  0.32411191    -0.14500
C1036       C  0.62657502  0.42141960  0.31111417     0.07700
C1037       C  0.59446218  0.39713609  0.32188074    -0.14500
C1038       C  0.59271417  0.39473602  0.34543793    -0.14500
C1039       C  0.62292486  0.41700013  0.35831797     0.07700
C1040       C  0.65386121  0.44336547  0.34754647    -0.14500
H1041       H  0.68103534  0.46357636  0.31612767     0.11700
H1042       H  0.57205489  0.37763006  0.31209819     0.11700
H1043       H  0.56899367  0.37357351  0.35343879     0.11700
H1044       H  0.67770868  0.46014531  0.35721737     0.11700
C1045       C  0.68443596  0.39393915  0.52172569    -0.14500
C1046       C  0.71692425  0.39367440  0.52205625     0.07700
C1047       C  0.73269750  0.39306205  0.50155307    -0.14500
C1048       C  0.71583959  0.39189853  0.48117635    -0.14500
C1049       C  0.68340230  0.39231861  0.48088547     0.07700
C1050       C  0.66811368  0.39375750  0.50137817    -0.14500
H1051       H  0.67182610  0.39480457  0.53729537     0.11700
H1052       H  0.75770509  0.39295083  0.50129606     0.11700
H1053       H  0.72851443  0.39127557  0.46557814     0.11700
H1054       H  0.64334676  0.39434080  0.50167572     0.11700
C1055       C  0.80890769  0.44554848  0.68024243    -0.14500
C1056       C  0.79721308  0.41436505  0.69306763     0.07700
C1057       C  0.78876880  0.38226718  0.68220889    -0.14500
C1058       C  0.78892337  0.38052912  0.65878608    -0.14500
C1059       C  0.79794845  0.41098076  0.64582420     0.07700
C1060       C  0.80948966  0.44389013  0.65665435    -0.14500
H1061       H  0.81450190  0.47029675  0.68829797     0.11700
H1062       H  0.77890711  0.35777934  0.69182321     0.11700
H1063       H  0.77912821  0.35478265  0.65076156     0.11700
H1064       H  0.81547111  0.46744023  0.64690701     0.11700
C1065       C  0.79566381  0.02389696  0.59304906    -0.14500
C1066       C  0.76244281  0.49236127  0.59104976     0.07700
C1067       C  0.73117662  0.99443609  0.58997803    -0.14500
C1068       C  0.73327289  0.02772875  0.58962772    -0.14500
C1069       C  0.76660037  0.05935340  0.59082431     0.07700
C1070       C  0.79770485  0.05718348  0.59318848    -0.14500
H1071       H  0.82012630  0.52279750  0.59405353     0.11700
H1072       H  0.70533917  0.47045318  0.58836507     0.11700
H1073       H  0.70885157  0.02877242  0.58797710     0.11700
H1074       H  0.82364408  0.08118284  0.59415414     0.11700
C1075       C  0.73475799  0.24325659  0.57629360    -0.14500
C1076       C  0.76819175  0.24514241  0.57762950     0.07700
C1077       C  0.79921569  0.27879793  0.57863062    -0.14500
C1078       C  0.79683295  0.30993385  0.57828428    -0.14500
C1079       C  0.76335159  0.30799792  0.57741550     0.07700
C1080       C  0.73233996  0.27435975  0.57642380    -0.14500
H1081       H  0.71033081  0.21763854  0.57565930     0.11700
H1082       H  0.82527892  0.28104345  0.57970995     0.11700
H1083       H  0.82120238  0.33556438  0.57925157     0.11700
H1084       H  0.70624333  0.27210784  0.57576689     0.11700
C1085       C  0.85013647  0.16169096  0.52280957    -0.14500
C1086       C  0.81730950  0.16130858  0.52301018     0.07700
C1087       C  0.80140929  0.16104496  0.50244738    -0.14500
C1088       C  0.81809801  0.16143465  0.48213371    -0.14500
C1089       C  0.85056128  0.16111505  0.48191855     0.07700
C1090       C  0.86634301  0.16108185  0.50247740    -0.14500
H1091       H  0.86290627  0.16161222  0.53844008     0.11700
H1092       H  0.77617904  0.16069848  0.50207788     0.11700
H1093       H  0.80512529  0.16114919  0.46651262     0.11700
H1094       H  0.89125889  0.16079731  0.50282056     0.11700
C1095       C  0.73096296  0.02651275  0.75872427    -0.14500
C1096       C  0.76430645  0.05816129  0.75762420     0.07700
C1097       C  0.79555286  0.05591171  0.75684133    -0.14500
C1098       C  0.79348555  0.02258702  0.75735300    -0.14500
C1099       C  0.76012126  0.49095870  0.75815724     0.07700
C1100       C  0.72887375  0.99318625  0.75874408    -0.14500
H1101       H  0.70641028  0.02749910  0.75920643     0.11700
H1102       H  0.82153756  0.07987803  0.75598122     0.11700
H1103       H  0.81799799  0.52152946  0.75670903     0.11700
H1104       H  0.70288531  0.46919718  0.75937534     0.11700
C1105       C  0.73065516  0.24142514  0.74902520    -0.14500
C1106       C  0.76396835  0.24308807  0.74932922     0.07700
C1107       C  0.79539278  0.27636841  0.74909453    -0.14500
C1108       C  0.79349158  0.30762739  0.74971491    -0.14500
C1109       C  0.76015613  0.30594168  0.75011186     0.07700
C1110       C  0.72875988  0.27268709  0.74917953    -0.14500
H1111       H  0.70605854  0.21590920  0.74897492     0.11700
H1112       H  0.82131470  0.27817920  0.74929967     0.11700
H1113       H  0.81808497  0.33312794  0.75015555     0.11700
H1114       H  0.70282184  0.27084079  0.74938665     0.11700
C1115       C  0.73559005  0.16710516  0.68139769    -0.14500
C1116       C  0.72682349  0.13476681  0.69207860     0.07700
C1117       C  0.71528764  0.10382126  0.67908458    -0.14500
C1118       C  0.71557698  0.10603086  0.65550075    -0.14500
C1119       C  0.72787574  0.13926786  0.64488444     0.07700
C1120       C  0.73631790  0.16939123  0.65799315    -0.14500
H1121       H  0.74526667  0.19139489  0.69115239     0.11700
H1122       H  0.70934962  0.07886393  0.68701992     0.11700
H1123       H  0.70991474  0.08269924  0.64564555     0.11700
H1124       H  0.74659933  0.19536329  0.65013670     0.11700
C1125       C  0.71077803  0.36095208  0.85735340    -0.14500
C1126       C  0.67798734  0.32844947  0.85748543     0.07700
C1127       C  0.66215426  0.31295233  0.83689959    -0.14500
C1128       C  0.67862159  0.32959145  0.81663360    -0.14500
C1129       C  0.71180240  0.36162574  0.81643238     0.07700
C1130       C  0.72779153  0.37712019  0.83702335    -0.14500
H1131       H  0.72379729  0.37336087  0.87301818     0.11700
H1132       H  0.63703674  0.28796232  0.83647303     0.11700
H1133       H  0.66575101  0.31679917  0.80101396     0.11700
H1134       H  0.75330511  0.40168694  0.83739426     0.11700
C1135       C  0.64905307  0.35655127  0.14771235    -0.14500
C1136       C  0.65008754  0.32443630  0.14754042     0.07700
C1137       C  0.65189096  0.30956584  0.16810059    -0.14500
C1138       C  0.65281799  0.32654839  0.18838602    -0.14500
C1139       C  0.65095101  0.35823478  0.18859652     0.07700
C1140       C  0.64898617  0.37301108  0.16802284    -0.14500
H1141       H  0.64735754  0.36849762  0.13208609     0.11700
H1142       H  0.65271201  0.28491513  0.16848008     0.11700
H1143       H  0.65407811  0.31432711  0.20400256     0.11700
H1144       H  0.64744688  0.39727622  0.16763925     0.11700
C1145       C  0.64472315  0.23363629  0.98906652    -0.14500
C1146       C  0.61648066  0.23518512  0.97853508     0.07700
C1147       C  0.58846962  0.23296728  0.99168073    -0.14500
C1148       C  0.59015362  0.23217080  0.01517123    -0.14500
C1149       C  0.62012198  0.23415885  0.02573292     0.07700
C1150       C  0.64668151  0.23340454  0.01255706    -0.14500
H1151       H  0.66710648  0.23642775  0.97920367     0.11700
H1152       H  0.56704726  0.23523043  0.98388856     0.11700
H1153       H  0.56996516  0.23387654  0.02506930     0.11700
H1154       H  0.67050303  0.23605833  0.02038330     0.11700
C1155       C  0.98056787  0.23991240  0.91227210    -0.14500
C1156       C  0.97762003  0.27077697  0.91246036     0.07700
C1157       C  0.00892399  0.30446379  0.91327145    -0.14500
C1158       C  0.54256450  0.30723418  0.91408153    -0.14500
C1159       C  0.54553951  0.27638229  0.91357251     0.06500
C1160       C  0.51422775  0.24270622  0.91256426    -0.14500
H1161       H  0.95689430  0.21367946  0.91175153     0.11700
H1162       H  0.00736498  0.32872040  0.91370560     0.11700
H1163       H  0.56621248  0.33345493  0.91490236     0.11700
H1164       H  0.51573901  0.21841926  0.91234278     0.11700
C1165       C  0.79509593  0.30488108  0.92496692    -0.14500
C1166       C  0.79303655  0.27144736  0.92306883     0.07700
C1167       C  0.75959141  0.24036347  0.92200561    -0.14500
C1168       C  0.72862617  0.24279901  0.92172599    -0.14500
C1169       C  0.73065511  0.27628610  0.92299560     0.07700
C1170       C  0.76405122  0.30726615  0.92519144    -0.14500
H1171       H  0.82077586  0.32920586  0.92594583     0.11700
H1172       H  0.75747529  0.21438528  0.92045163     0.11700
H1173       H  0.70305178  0.21847265  0.92019899     0.11700
H1174       H  0.76620852  0.33331248  0.92620220     0.11700
C1175       C  0.85862167  0.23932770  0.83533336    -0.14500
C1176       C  0.84535348  0.22151839  0.85585294     0.07700
C1177       C  0.81514311  0.18685078  0.85563131    -0.14500
C1178       C  0.79827841  0.17061258  0.83537489    -0.14500
C1179       C  0.81189242  0.18831386  0.81488232     0.07700
C1180       C  0.84235141  0.22270759  0.81506774    -0.14500
H1181       H  0.88162497  0.26602689  0.83494415     0.11700
H1182       H  0.80403869  0.17251918  0.87121419     0.11700
H1183       H  0.77486996  0.14417589  0.83570205     0.11700
H1184       H  0.85317124  0.23713674  0.79947198     0.11700
C1185       C  0.87504951  0.23620168  0.16850286    -0.14500
C1186       C  0.87624538  0.22075903  0.14803531     0.07700
C1187       C  0.87822230  0.18915871  0.14839954    -0.14500
C1188       C  0.87962261  0.17366224  0.16881167    -0.14500
C1189       C  0.87807038  0.18890380  0.18929865     0.07700
C1190       C  0.87544092  0.22016139  0.18890565    -0.14500
H1191       H  0.87366732  0.26055760  0.16871867     0.11700
H1192       H  0.87962497  0.17690022  0.13282797     0.11700
H1193       H  0.88175231  0.14972144  0.16857659     0.11700
H1194       H  0.87450144  0.23273427  0.20445123     0.11700
C1195       C  0.98079670  0.23764625  0.08152120    -0.14500
C1196       C  0.97869307  0.26895701  0.08185688     0.07700
C1197       C  0.01021741  0.30238715  0.08135151    -0.14500
C1198       C  0.54347496  0.30452302  0.08110732    -0.14500
C1199       C  0.54560746  0.27325866  0.08185916     0.07700
C1200       C  0.51408657  0.23979211  0.08177208    -0.14500
H1201       H  0.95679971  0.21163459  0.08191680     0.11700
H1202       H  0.00912762  0.32690431  0.08141995     0.11700
H1203       H  0.56745772  0.33055170  0.08118427     0.11700
H1204       H  0.51521846  0.21530264  0.08216783     0.11700
C1205       C  0.76018566  0.23848664  0.08936916    -0.14500
C1206       C  0.79381329  0.26945794  0.09058438     0.07700
C1207       C  0.79585090  0.30300196  0.09166366    -0.14500
C1208       C  0.76482981  0.30552672  0.09135050    -0.14500
C1209       C  0.73121728  0.27450831  0.09046449     0.07700
C1210       C  0.72916498  0.24097621  0.08955750    -0.14500
H1211       H  0.75786441  0.21236266  0.08843973     0.11700
H1212       H  0.82150144  0.32737617  0.09241072     0.11700
H1213       H  0.76709113  0.33164202  0.09202826     0.11700
H1214       H  0.70350697  0.21662999  0.08863645     0.11700
C1215       C  0.88045984  0.31267786  0.01275194    -0.14500
C1216       C  0.90499776  0.30767023  0.02533525     0.07700
C1217       C  0.93304492  0.30637084  0.01425702    -0.14500
C1218       C  0.93472213  0.30689246  0.99076338    -0.14500
C1219       C  0.90859912  0.30913970  0.97810769     0.07700
C1220       C  0.88240541  0.31365012  0.98922093    -0.14500
H1221       H  0.85804702  0.31263138  0.02099403     0.11700
H1222       H  0.95160579  0.30148964  0.02370277     0.11700
H1223       H  0.95440942  0.30224933  0.98248950     0.11700
H1224       H  0.86132027  0.31418167  0.97970983     0.11700
O1225       O  0.82719900  0.73980661  0.08306240    -0.72900
O1226       O  0.91543334  0.74056039  0.07714224    -0.73100
O1227       O  0.86517621  0.71883069  0.10882725    -0.73000
O1228       O  0.87793272  0.76035427  0.05118142    -0.73000
O1229       O  0.90761694  0.81368793  0.06549846    -0.72900
O1230       O  0.89118866  0.77148532  0.12414974    -0.73000
O1231       O  0.94260777  0.79300047  0.09280466    -0.72900
O1232       O  0.85587329  0.79358828  0.09669114    -0.73100
V1233       V  0.87177522  0.74090275  0.08037825     1.35200
V1234       V  0.89858796  0.79186078  0.09459688     1.35200
C1235       C  0.82684601  0.76727739  0.09023280     0.76300
C1236       C  0.94408334  0.76727207  0.08394033     0.76400
C1237       C  0.87710278  0.73783921  0.12623327     0.76300
C1238       C  0.89610429  0.79372389  0.04836666     0.76200
O1239       O  0.91456063  0.74090360  0.91990321    -0.72900
O1240       O  0.82773559  0.74269171  0.92728752    -0.73100
O1241       O  0.85486386  0.72021048  0.89508516    -0.73000
O1242       O  0.88599448  0.76195684  0.95229207    -0.73000
O1243       O  0.90919355  0.81529164  0.93791765    -0.72900
O1244       O  0.88120756  0.77270891  0.87948484    -0.73000
O1245       O  0.85276658  0.79503481  0.91138903    -0.72900
O1246       O  0.93953265  0.79470462  0.90619305    -0.73100
V1247       V  0.87139280  0.74245996  0.92330470     1.35200
V1248       V  0.89531698  0.79335397  0.90891171     1.35200
C1249       C  0.94230928  0.76837803  0.91263780     0.76300
C1250       C  0.82580069  0.76952626  0.92061290     0.76400
C1251       C  0.86160746  0.73901542  0.87758360     0.76300
C1252       C  0.90162677  0.79532524  0.95504742     0.76200
O1253       O  0.69760722  0.80383320  0.08285225    -0.72900
O1254       O  0.60880223  0.80176272  0.07664216    -0.73100
O1255       O  0.65925836  0.82496958  0.10813586    -0.73000
O1256       O  0.64689042  0.78190516  0.05112204    -0.73000
O1257       O  0.61695682  0.72894101  0.06603251    -0.72900
O1258       O  0.63423731  0.77283362  0.12421994    -0.73000
O1259       O  0.58213681  0.75003242  0.09332474    -0.72900
O1260       O  0.66921806  0.75014693  0.09678124    -0.73100
V1261       V  0.65276336  0.80210780  0.08002337     1.35200
V1262       V  0.62635024  0.75155192  0.09489831     1.35200
C1263       C  0.69814684  0.77653544  0.09016449     0.76300
C1264       C  0.58032939  0.77522267  0.08393451     0.76400
C1265       C  0.64814217  0.80653513  0.12585657     0.76300
C1266       C  0.62867542  0.74848752  0.04867302     0.76200
O1267       O  0.60837707  0.80597030  0.92187971    -0.72900
O1268       O  0.69561411  0.80462179  0.92837164    -0.73100
O1269       O  0.66855708  0.82832481  0.89691487    -0.73000
O1270       O  0.63705972  0.78362684  0.95357923    -0.73000
O1271       O  0.61491643  0.73112432  0.93821844    -0.72900
O1272       O  0.64196156  0.77655176  0.88047146    -0.73000
O1273       O  0.67122042  0.75346940  0.91113034    -0.72900
O1274       O  0.58383679  0.75263563  0.90759230    -0.73100
V1275       V  0.65177291  0.80465710  0.92484971     1.35200
V1276       V  0.62831985  0.75451655  0.90956508     1.35200
C1277       C  0.58082632  0.77870856  0.91428329     0.76300
C1278       C  0.69793516  0.77842113  0.92082049     0.76400
C1279       C  0.66167700  0.81028492  0.87907728     0.76300
C1280       C  0.62226564  0.75016615  0.95574193     0.76200
O1281       O  0.79336678  0.62096737  0.74973753    -0.72900
O1282       O  0.79237170  0.70830809  0.74436949    -0.73100
O1283       O  0.81382137  0.67937241  0.77575207    -0.73000
O1284       O  0.77311507  0.65170916  0.71808297    -0.73000
O1285       O  0.71953947  0.62755131  0.73220500    -0.72900
O1286       O  0.76106908  0.65260901  0.79107503    -0.73000
O1287       O  0.73969500  0.68275848  0.75985399    -0.72900
O1288       O  0.73946850  0.59558322  0.76333837    -0.73100
V1289       V  0.79211426  0.66435706  0.74730339     1.35200
V1290       V  0.74099260  0.63992946  0.76142813     1.35200
C1291       C  0.76600819  0.59310736  0.75697028     0.76300
C1292       C  0.76553100  0.71009781  0.75116063     0.76400
C1293       C  0.79470470  0.67212976  0.79315760     0.76300
C1294       C  0.73984901  0.63691455  0.71512932     0.76200
O1295       O  0.79752282  0.71166024  0.58604205    -0.72900
O1296       O  0.79493317  0.62290140  0.59523218    -0.73100
O1297       O  0.81821582  0.67147888  0.56232036    -0.73000
O1298       O  0.77550502  0.66311876  0.61914457    -0.73000
O1299       O  0.72252927  0.63139875  0.60474288    -0.72900
O1300       O  0.76606101  0.64662765  0.54645812    -0.73000
O1301       O  0.74365969  0.59568372  0.57823560    -0.72900
O1302       O  0.74344531  0.68256963  0.57301087    -0.73100
V1303       V  0.79555436  0.66686260  0.59036376     1.35200
V1304       V  0.74497111  0.63976354  0.57580104     1.35200
C1305       C  0.77008002  0.71190602  0.57876491     0.76300
C1306       C  0.76861593  0.59414364  0.58811955     0.76400
C1307       C  0.79968396  0.66006388  0.54471397     0.76300
C1308       C  0.74212672  0.64486469  0.62186553     0.76200
O1309       O  0.73090665  0.92813043  0.75080207    -0.72900
O1310       O  0.73150563  0.84058791  0.74590338    -0.73100
O1311       O  0.71027031  0.87015725  0.77719268    -0.73000
O1312       O  0.75086849  0.89686979  0.71929579    -0.73000
O1313       O  0.80447286  0.92141745  0.73319567    -0.72900
O1314       O  0.76300015  0.89637010  0.79230635    -0.73000
O1315       O  0.78436741  0.86617249  0.76091555    -0.72900
O1316       O  0.78468148  0.95343699  0.76440560    -0.73100
V1317       V  0.73194837  0.88464422  0.74862874     1.35200
V1318       V  0.78307988  0.90902969  0.76253585     1.35200
C1319       C  0.75827610  0.95597399  0.75791116     0.76300
C1320       C  0.75846938  0.83883581  0.75236221     0.76400
C1321       C  0.72930376  0.87731604  0.79455889     0.76300
C1322       C  0.78413916  0.91188967  0.71619812     0.76200
O1323       O  0.73315673  0.84081279  0.58513010    -0.72900
O1324       O  0.73426827  0.92875764  0.59455064    -0.73100
O1325       O  0.71384855  0.88163301  0.56109112    -0.73000
O1326       O  0.75230095  0.88787922  0.61886987    -0.73000
O1327       O  0.80627582  0.92024389  0.60583237    -0.72900
O1328       O  0.76705881  0.90776811  0.54644314    -0.73000
O1329       O  0.78693394  0.95708700  0.57911426    -0.72900
O1330       O  0.78805057  0.87068590  0.57332329    -0.73100
V1331       V  0.73443181  0.88522274  0.58960737     1.35200
V1332       V  0.78603158  0.91323285  0.57633243     1.35200
C1333       C  0.76117613  0.84105963  0.57845665     0.76300
C1334       C  0.76103678  0.95791816  0.58827963     0.76400
C1335       C  0.73352476  0.89412506  0.54395919     0.76300
C1336       C  0.78542598  0.90610050  0.62244588     0.76200
O1337       O  0.70063507  0.92711237  0.25251430    -0.72900
O1338       O  0.61192467  0.84048873  0.26036069    -0.73100
O1339       O  0.66127333  0.86722811  0.22788557    -0.73000
O1340       O  0.65128962  0.89898347  0.28513808    -0.73000
O1341       O  0.62044398  0.92143290  0.27092327    -0.72900
O1342       O  0.63591933  0.89433235  0.21232781    -0.73000
O1343       O  0.58481649  0.86531018  0.24405368    -0.72900
O1344       O  0.67177585  0.95232346  0.23933932    -0.73100
V1345       V  0.65586901  0.88404601  0.25613972     1.35200
V1346       V  0.62895458  0.90800004  0.24183425     1.35200
C1347       C  0.70094437  0.95495732  0.24541988     0.76300
C1348       C  0.58321510  0.83845273  0.25352439     0.76400
C1349       C  0.64968034  0.87443162  0.21037645     0.76300
C1350       C  0.63315904  0.91420270  0.28800047     0.76200
O1351       O  0.61323035  0.83988830  0.41723049    -0.72900
O1352       O  0.70001489  0.92857168  0.40925411    -0.73100
O1353       O  0.67311311  0.87965792  0.44186162    -0.73000
O1354       O  0.64196487  0.88929673  0.38435993    -0.73000
O1355       O  0.61813686  0.91903298  0.39845378    -0.72900
O1356       O  0.64684088  0.90621174  0.45704600    -0.73000
O1357       O  0.67473007  0.95599108  0.42463787    -0.72900
O1358       O  0.58830546  0.86881566  0.43083293    -0.73100
V1359       V  0.65638640  0.88467740  0.41349961     1.35200
V1360       V  0.63232244  0.91174384  0.42755608     1.35200
C1361       C  0.58558351  0.83955916  0.42480369     0.76300
C1362       C  0.70182751  0.95744092  0.41559480     0.76400
C1363       C  0.66664013  0.89239540  0.45915305     0.76300
C1364       C  0.62663920  0.90730371  0.38140230     0.76200
O1365       O  0.82959168  0.62086167  0.25355357    -0.72900
O1366       O  0.91776476  0.70812417  0.26090861    -0.73100
O1367       O  0.86840447  0.68060149  0.22867492    -0.73000
O1368       O  0.87893998  0.64970270  0.28604525    -0.73000
O1369       O  0.91013116  0.62755846  0.27182229    -0.72900
O1370       O  0.89432898  0.65394953  0.21316332    -0.73000
O1371       O  0.94535374  0.68359771  0.24473593    -0.72900
O1372       O  0.85892882  0.59607593  0.24038345    -0.73100
V1373       V  0.87409668  0.66422665  0.25697511     1.35200
V1374       V  0.90146819  0.64064034  0.24270843     1.35200
C1375       C  0.82958683  0.59319782  0.24639756     0.76300
C1376       C  0.94662025  0.71039836  0.25405424     0.76400
C1377       C  0.88007885  0.67339663  0.21116353     0.76300
C1378       C  0.89739394  0.63484294  0.28891264     0.76200
O1379       O  0.91983463  0.71082140  0.41786039    -0.72900
O1380       O  0.83239269  0.62292098  0.41034072    -0.73100
O1381       O  0.85999542  0.67206733  0.44272370    -0.73000
O1382       O  0.89060268  0.66133830  0.38522230    -0.73000
O1383       O  0.91307429  0.63043506  0.39934885    -0.72900
O1384       O  0.88605632  0.64548906  0.45806663    -0.73000
O1385       O  0.85672109  0.59489867  0.42609609    -0.72900
O1386       O  0.94430884  0.68129965  0.43112019    -0.73100
V1387       V  0.87636209  0.66641742  0.41436793     1.35200
V1388       V  0.89972483  0.63878592  0.42848892     1.35200
C1389       C  0.94735147  0.71072048  0.42513310     0.76300
C1390       C  0.83004229  0.59387902  0.41681182     0.76400
C1391       C  0.86671508  0.65984398  0.46013531     0.76300
C1392       C  0.90515861  0.64260059  0.38228429     0.76200
C1393       C  0.93635142  0.65399939  0.32247725    -0.14500
C1394       C  0.90467292  0.62841717  0.31202296     0.07700
C1395       C  0.87633595  0.60339534  0.32529462    -0.14500
C1396       C  0.87862999  0.60550738  0.34873494    -0.14500
C1397       C  0.90904408  0.63299804  0.35920123     0.07700
C1398       C  0.93843061  0.65648845  0.34599677    -0.14500
H1399       H  0.95802831  0.67427232  0.31248837     0.11700
H1400       H  0.85133152  0.58421234  0.31755303     0.11700
H1401       H  0.85531021  0.58781185  0.35866168     0.11700
H1402       H  0.96163370  0.67852946  0.35375748     0.11700
C1403       C  0.76802690  0.49455487  0.41146952    -0.14500
C1404       C  0.73459977  0.99226570  0.41309063     0.07700
C1405       C  0.73269924  0.52383069  0.41393891    -0.14500
C1406       C  0.76379964  0.55716366  0.41410145    -0.14500
C1407       C  0.79721940  0.55934302  0.41386756     0.07700
C1408       C  0.79915218  0.52788500  0.41209553    -0.14500
H1409       H  0.77012881  0.97061316  0.41074070     0.11700
H1410       H  0.70712559  0.02270974  0.41498070     0.11700
H1411       H  0.76174517  0.58108785  0.41541824     0.11700
H1412       H  0.82478863  0.52907070  0.41162080     0.11700
C1413       C  0.54766589  0.77263373  0.42496185    -0.14500
C1414       C  0.55042148  0.80636505  0.42594924     0.07700
C1415       C  0.51893571  0.80840397  0.42728322    -0.14500
C1416       C  0.98536907  0.77740020  0.42706781    -0.14500
C1417       C  0.98262413  0.74369829  0.42604149     0.07700
C1418       C  0.01408829  0.74158781  0.42526388    -0.14500
H1419       H  0.57142687  0.77026619  0.42392864     0.11700
H1420       H  0.52021690  0.83407929  0.42795285     0.11700
H1421       H  0.96158370  0.77976920  0.42773022     0.11700
H1422       H  0.01271266  0.71588321  0.42433432     0.11700
C1423       C  0.73191019  0.52167419  0.24465836    -0.14500
C1424       C  0.73402153  0.99018220  0.24492324     0.07700
C1425       C  0.76773029  0.49290355  0.24545035    -0.14500
C1426       C  0.79872829  0.52648360  0.24551338    -0.14500
C1427       C  0.79659066  0.55796158  0.24555313     0.07700
C1428       C  0.76288596  0.55524037  0.24521611    -0.14500
H1429       H  0.70621549  0.02036284  0.24446823     0.11700
H1430       H  0.77011728  0.96911057  0.24573653     0.11700
H1431       H  0.82442614  0.52781992  0.24595450     0.11700
H1432       H  0.76049136  0.57903527  0.24526255     0.11700
C1433       C  0.51690936  0.80780015  0.25591988    -0.14500
C1434       C  0.54840389  0.80576482  0.25615511     0.07700
C1435       C  0.54607764  0.77231132  0.25759496    -0.14500
C1436       C  0.01271141  0.74124643  0.25751468    -0.14500
C1437       C  0.98125226  0.74326080  0.25649339     0.07700
C1438       C  0.98352758  0.77674336  0.25633107    -0.14500
H1439       H  0.51811931  0.83343338  0.25502254     0.11700
H1440       H  0.56998829  0.77013900  0.25782538     0.11700
H1441       H  0.01148229  0.71557688  0.25785376     0.11700
H1442       H  0.95960761  0.77885829  0.25553390     0.11700
C1443       C  0.65575641  0.94541415  0.32411252    -0.14500
C1444       C  0.62657210  0.92141735  0.31111468     0.07700
C1445       C  0.59446065  0.89713025  0.32188115    -0.14500
C1446       C  0.59271271  0.89472989  0.34543828    -0.14500
C1447       C  0.62292190  0.91699734  0.35831847     0.07700
C1448       C  0.65385655  0.94336580  0.34754711    -0.14500
H1449       H  0.68102985  0.96357978  0.31612833     0.11700
H1450       H  0.57205481  0.87762209  0.31209852     0.11700
H1451       H  0.56899371  0.87356492  0.35343905     0.11700
H1452       H  0.67770301  0.96014813  0.35721812     0.11700
C1453       C  0.68443633  0.89393918  0.52172589    -0.14500
C1454       C  0.71692453  0.89367424  0.52205659     0.07700
C1455       C  0.73269787  0.89306181  0.50155344    -0.14500
C1456       C  0.71584010  0.89189835  0.48117666    -0.14500
C1457       C  0.68340290  0.89231859  0.48088569     0.07700
C1458       C  0.66811418  0.89375759  0.50137833    -0.14500
H1459       H  0.67182638  0.89480469  0.53729552     0.11700
H1460       H  0.75770537  0.89295044  0.50129651     0.11700
H1461       H  0.72851493  0.89127525  0.46557849     0.11700
H1462       H  0.64334740  0.89434099  0.50167581     0.11700
C1463       C  0.80890778  0.94554745  0.68024356    -0.14500
C1464       C  0.79721165  0.91436374  0.69306871     0.07700
C1465       C  0.78876564  0.88226544  0.68220989    -0.14500
C1466       C  0.78891995  0.88052739  0.65878706    -0.14500
C1467       C  0.79794668  0.91097950  0.64582522     0.07700
C1468       C  0.80948955  0.94388909  0.65665547    -0.14500
H1469       H  0.81450340  0.97029611  0.68829918     0.11700
H1470       H  0.77890290  0.85777746  0.69182414     0.11700
H1471       H  0.77912351  0.85478079  0.65076252     0.11700
H1472       H  0.81547233  0.96743968  0.64690817     0.11700
C1473       C  0.79566512  0.52389755  0.59304880    -0.14500
C1474       C  0.76244156  0.99236064  0.59104999     0.07700
C1475       C  0.73117786  0.49443674  0.58997848    -0.14500
C1476       C  0.73327404  0.52772936  0.58962876    -0.14500
C1477       C  0.76660155  0.55935401  0.59082524     0.07700
C1478       C  0.79770614  0.55718408  0.59318873    -0.14500
H1479       H  0.82012499  0.02279693  0.59405417     0.11700
H1480       H  0.70533805  0.97045256  0.58836450     0.11700
H1481       H  0.70885269  0.52877303  0.58797861     0.11700
H1482       H  0.82364536  0.58118340  0.59415421     0.11700
C1483       C  0.73475813  0.74325647  0.57629462    -0.14500
C1484       C  0.76819204  0.74514257  0.57763050     0.07700
C1485       C  0.79921583  0.77879816  0.57863163    -0.14500
C1486       C  0.79683285  0.80993394  0.57828524    -0.14500
C1487       C  0.76335140  0.80799778  0.57741640     0.07700
C1488       C  0.73233985  0.77435951  0.57642476    -0.14500
H1489       H  0.71033110  0.71763838  0.57566032     0.11700
H1490       H  0.82527914  0.78104386  0.57971096     0.11700
H1491       H  0.82120218  0.83556455  0.57925252     0.11700
H1492       H  0.70624322  0.77210741  0.57576785     0.11700
C1493       C  0.85013679  0.66169099  0.52281054    -0.14500
C1494       C  0.81730980  0.66130863  0.52301119     0.07700
C1495       C  0.80140967  0.66104527  0.50244841    -0.14500
C1496       C  0.81809852  0.66143529  0.48213471    -0.14500
C1497       C  0.85056186  0.66111576  0.48191951     0.07700
C1498       C  0.86634343  0.66108219  0.50247833    -0.14500
H1499       H  0.86290651  0.66161202  0.53844097     0.11700
H1500       H  0.77617943  0.66069880  0.50207897     0.11700
H1501       H  0.80512583  0.66114999  0.46651365     0.11700
H1502       H  0.89125923  0.66079753  0.50282146     0.11700
C1503       C  0.73096539  0.52651378  0.75872414    -0.14500
C1504       C  0.76430891  0.55816221  0.75762383     0.07700
C1505       C  0.79555526  0.55591253  0.75684035    -0.14500
C1506       C  0.79348780  0.52258774  0.75735181    -0.14500
C1507       C  0.76011910  0.99095782  0.75815804     0.07700
C1508       C  0.72887602  0.49318725  0.75874374    -0.14500
H1509       H  0.70641276  0.52750022  0.75920673     0.11700
H1510       H  0.82153991  0.57987870  0.75598001     0.11700
H1511       H  0.81799593  0.02152894  0.75671058     0.11700
H1512       H  0.70288308  0.96919609  0.75937538     0.11700
C1513       C  0.73065648  0.74142532  0.74902799    -0.14500
C1514       C  0.76396994  0.74308882  0.74933198     0.07700
C1515       C  0.79539405  0.77636945  0.74909700    -0.14500
C1516       C  0.79349221  0.80762810  0.74971699    -0.14500
C1517       C  0.76015649  0.80594181  0.75011388     0.07700
C1518       C  0.72876060  0.77268692  0.74918192    -0.14500
H1519       H  0.70606007  0.71590910  0.74897791     0.11700
H1520       H  0.82131620  0.77818071  0.74930210     0.11700
H1521       H  0.81808538  0.83312896  0.75015734     0.11700
H1522       H  0.70282226  0.77084013  0.74938899     0.11700
C1523       C  0.73559377  0.66710812  0.68139886    -0.14500
C1524       C  0.72682559  0.63476948  0.69207996     0.07700
C1525       C  0.71528784  0.60382344  0.67908612    -0.14500
C1526       C  0.71557698  0.60603276  0.65550228    -0.14500
C1527       C  0.72787743  0.63926986  0.64488580     0.07700
C1528       C  0.73632143  0.66939389  0.65799433    -0.14500
H1529       H  0.74527177  0.69139821  0.69115342     0.11700
H1530       H  0.70934851  0.57886581  0.68702158     0.11700
H1531       H  0.70991317  0.58270050  0.64564716     0.11700
H1532       H  0.74660403  0.69536591  0.65013777     0.11700
C1533       C  0.71077560  0.86095191  0.85735449    -0.14500
C1534       C  0.67798512  0.82844910  0.85748641     0.07700
C1535       C  0.66215268  0.81295172  0.83690050    -0.14500
C1536       C  0.67862039  0.82959073  0.81663457    -0.14500
C1537       C  0.71180104  0.86162524  0.81643349     0.07700
C1538       C  0.72778954  0.87712001  0.83702454    -0.14500
H1539       H  0.72379446  0.87336090  0.87301940     0.11700
H1540       H  0.63703523  0.78796143  0.83647381     0.11700
H1541       H  0.66575029  0.81679827  0.80101490     0.11700
H1542       H  0.75330290  0.90168692  0.83739556     0.11700
C1543       C  0.64905018  0.85655082  0.14771256    -0.14500
C1544       C  0.65008482  0.82443592  0.14754079     0.07700
C1545       C  0.65188915  0.80956615  0.16810102    -0.14500
C1546       C  0.65281704  0.82654933  0.18838635    -0.14500
C1547       C  0.65095013  0.85823577  0.18859669     0.07700
C1548       C  0.64898420  0.87301131  0.16802297    -0.14500
H1549       H  0.64735396  0.86849661  0.13208627     0.11700
H1550       H  0.65271040  0.78491551  0.16848065     0.11700
H1551       H  0.65407778  0.81432858  0.20400291     0.11700
H1552       H  0.64744474  0.89727634  0.16763925     0.11700
C1553       C  0.64473763  0.73364938  0.98906754    -0.14500
C1554       C  0.61648758  0.73518381  0.97853590     0.07700
C1555       C  0.58846996  0.73295158  0.99168132    -0.14500
C1556       C  0.59015393  0.73215501  0.01517193    -0.14500
C1557       C  0.62012865  0.73415737  0.02573376     0.07700
C1558       C  0.64669567  0.73341745  0.01255795    -0.14500
H1559       H  0.66712560  0.73645193  0.97920491     0.11700
H1560       H  0.56704132  0.73520369  0.98388900     0.11700
H1561       H  0.56995928  0.73384977  0.02506998     0.11700
H1562       H  0.67052171  0.73608228  0.02038432     0.11700
C1563       C  0.98056730  0.73991058  0.91227729    -0.14500
C1564       C  0.97761944  0.77077511  0.91246571     0.07700
C1565       C  0.00892325  0.80446199  0.91327698    -0.14500
C1566       C  0.54256380  0.80723263  0.91408629    -0.14500
C1567       C  0.54553884  0.77638081  0.91357647     0.06500
C1568       C  0.51422716  0.74270469  0.91256798    -0.14500
H1569       H  0.95689376  0.71367764  0.91175658     0.11700
H1570       H  0.00736409  0.82871850  0.91371126     0.11700
H1571       H  0.56621177  0.83345338  0.91490723     0.11700
H1572       H  0.51573850  0.71841780  0.91234584     0.11700
C1573       C  0.79509556  0.80488002  0.92496535    -0.14500
C1574       C  0.79303598  0.77144626  0.92306700     0.07700
C1575       C  0.75959082  0.74036248  0.92200325    -0.14500
C1576       C  0.72862573  0.74279820  0.92172367    -0.14500
C1577       C  0.73065487  0.77628532  0.92299382     0.07700
C1578       C  0.76405100  0.80726524  0.92518983    -0.14500
H1579       H  0.82077558  0.82920471  0.92594471     0.11700
H1580       H  0.75747459  0.71438430  0.92044909     0.11700
H1581       H  0.70305132  0.71847192  0.92019647     0.11700
H1582       H  0.76620838  0.83331164  0.92620094     0.11700
C1583       C  0.85862420  0.73932551  0.83533522    -0.14500
C1584       C  0.84535652  0.72151544  0.85585463     0.07700
C1585       C  0.81514670  0.68684748  0.85563277    -0.14500
C1586       C  0.79828183  0.67060989  0.83537627    -0.14500
C1587       C  0.81189519  0.68831208  0.81488387     0.07700
C1588       C  0.84235389  0.72270598  0.81506952    -0.14500
H1589       H  0.88162699  0.76602502  0.83494617     0.11700
H1590       H  0.80404270  0.67251533  0.87121554     0.11700
H1591       H  0.77487356  0.64417290  0.83570321     0.11700
H1592       H  0.85317330  0.73713578  0.79947394     0.11700
C1593       C  0.87505075  0.73619884  0.16850265    -0.14500
C1594       C  0.87624750  0.72075675  0.14803508     0.07700
C1595       C  0.87822531  0.68915690  0.14839921    -0.14500
C1596       C  0.87962573  0.67366040  0.16881134    -0.14500
C1597       C  0.87807255  0.68890142  0.18929834     0.07700
C1598       C  0.87544219  0.72015849  0.18890537    -0.14500
H1599       H  0.87366778  0.76055428  0.16871854     0.11700
H1600       H  0.87962853  0.67689882  0.13282761     0.11700
H1601       H  0.88175615  0.64972005  0.16857624     0.11700
H1602       H  0.87450195  0.73273096  0.20445096     0.11700
C1603       C  0.98079615  0.73764586  0.08151886    -0.14500
C1604       C  0.97869253  0.76895663  0.08185431     0.07700
C1605       C  0.01021693  0.80238673  0.08134888    -0.14500
C1606       C  0.54347472  0.80452282  0.08110511    -0.14500
C1607       C  0.54560711  0.77325836  0.08185677     0.07700
C1608       C  0.51408614  0.73979192  0.08176906    -0.14500
H1609       H  0.95679910  0.71163422  0.08191459     0.11700
H1610       H  0.00912712  0.82690390  0.08141718     0.11700
H1611       H  0.56745747  0.83055135  0.08118251     0.11700
H1612       H  0.51521793  0.71530233  0.08216463     0.11700
C1613       C  0.76018469  0.73848516  0.08937253    -0.14500
C1614       C  0.79381237  0.76945641  0.09058823     0.07700
C1615       C  0.79584988  0.80300036  0.09166807    -0.14500
C1616       C  0.76482877  0.80552515  0.09135488    -0.14500
C1617       C  0.73121619  0.77450681  0.09046817     0.07700
C1618       C  0.72916399  0.74097479  0.08956075    -0.14500
H1619       H  0.75786345  0.71236128  0.08844259     0.11700
H1620       H  0.82150035  0.82737452  0.09241547     0.11700
H1621       H  0.76709012  0.83164044  0.09203296     0.11700
H1622       H  0.70350593  0.71662855  0.08863908     0.11700
C1623       C  0.88043352  0.81265441  0.01275277    -0.14500
C1624       C  0.90498706  0.80767214  0.02533653     0.07700
C1625       C  0.93304769  0.80639733  0.01425865    -0.14500
C1626       C  0.93472453  0.80691816  0.99076482    -0.14500
C1627       C  0.90858766  0.80914052  0.97810899     0.07700
C1628       C  0.88237863  0.81362636  0.98922197    -0.14500
H1629       H  0.85801076  0.81258849  0.02099458     0.11700
H1630       H  0.95162092  0.80153496  0.02370482     0.11700
H1631       H  0.95442412  0.80229347  0.98249110     0.11700
H1632       H  0.86128362  0.81413848  0.97971082     0.11700
loop_ 
_geom_bond_atom_site_label_1 
_geom_bond_atom_site_label_2 
_geom_bond_distance 
_geom_bond_site_symmetry_2 
_ccdc_geom_bond_type 
O1            V9   1.909       .  S
O1           C11   1.268       .  A
O2            V9   1.903       .  S
O2           C12   1.266       .  A
O3            V9   1.892       .  S
O3           C13   1.261       .  A
O4            V9   1.888       .  S
O4           C14   1.261       .  A
O5           V10   1.914       .  S
O5           C14   1.266       .  A
O6           V10   1.919       .  S
O6           C13   1.270       .  A
O7           V10   1.881       .  S
O7           C12   1.260       .  A
O8           V10   1.888       .  S
O8           C11   1.261       .  A
V9           V10   2.088       .  T
C11         C390   1.477       .  S
C12         C380   1.465       .  S
C13         C370   1.483       .  S
C14         C400   1.467       .  S
O15          V23   1.910       .  S
O15          C25   1.268       .  A
O16          V23   1.906       .  S
O16          C26   1.267       .  A
O17          V23   1.890       .  S
O17          C27   1.261       .  A
O18          V23   1.885       .  S
O18          C28   1.260       .  A
O19          V24   1.916       .  S
O19          C28   1.267       .  A
O20          V24   1.921       .  S
O20          C27   1.271       .  A
O21          V24   1.881       .  S
O21          C26   1.259       .  A
O22          V24   1.889       .  S
O22          C25   1.261       .  A
V23          V24   2.087       .  T
C25         C340   1.477       .  S
C26         C350   1.466       .  S
C27         C360   1.486       .  S
C28         C403   1.466       .  S
O29          V37   1.909       .  S
O29          C39   1.268       .  A
O30          V37   1.903       .  S
O30          C40   1.266       .  A
O31          V37   1.891       .  S
O31          C41   1.261       .  A
O32          V37   1.887       .  S
O32          C42   1.261       .  A
O33          V38   1.916       .  S
O33          C42   1.267       .  A
O34          V38   1.921       .  S
O34          C41   1.271       .  A
O35          V38   1.881       .  S
O35          C40   1.260       .  A
O36          V38   1.887       .  S
O36          C39   1.261       .  A
V37          V38   2.087       .  T
C39         C393   1.475       .  S
C40         C383   1.465       .  S
C41         C320   1.484       .  S
C42         C333   1.468       .  S
O43          V51   1.913       .  S
O43          C53   1.269       .  A
O44          V51   1.907       .  S
O44          C54   1.267       .  A
O45          V51   1.893       .  S
O45          C55   1.261       .  A
O46          V51   1.888       .  S
O46          C56   1.261       .  A
O47          V52   1.916       .  S
O47          C56   1.267       .  A
O48          V52   1.918       .  S
O48          C55   1.271       .  A
O49          V52   1.879       .  S
O49          C54   1.260       .  A
O50          V52   1.887       .  S
O50          C53   1.261       .  A
V51          V52   2.087       .  T
C53         C343   1.478       .  S
C54         C353   1.468       .  S
C55         C310   1.484       .  S
C56         C330   1.468       .  S
O57          V65   1.907       .  S
O57          C67   1.267       .  A
O58          V65   1.901       .  S
O58          C68   1.265       .  A
O59          V65   1.888       .  S
O59          C69   1.260       .  A
O60          V65   1.885       .  S
O60          C70   1.260       .  A
O61          V66   1.918       .  S
O61          C70   1.267       .  A
O62          V66   1.922       .  S
O62          C69   1.271       .  A
O63          V66   1.881       .  S
O63          C68   1.260       .  A
O64          V66   1.887       .  S
O64          C67   1.261       .  A
V65          V66   2.088       .  T
C67         C280   1.474       .  S
C68         C290   1.464       .  S
C69         C363   1.482       .  S
C70         C300   1.468       .  S
O71          V79   1.911       .  S
O71          C81   1.268       .  A
O72          V79   1.907       .  S
O72          C82   1.267       .  A
O73          V79   1.891       .  S
O73          C83   1.261       .  A
O74          V79   1.886       .  S
O74          C84   1.261       .  A
O75          V80   1.917       .  S
O75          C84   1.267       .  A
O76          V80   1.920       .  S
O76          C83   1.271       .  A
O77          V80   1.882       .  S
O77          C82   1.260       .  A
O78          V80   1.890       .  S
O78          C81   1.262       .  A
V79          V80   2.086       .  T
C81         C260   1.479       .  S
C82         C253   1.470       .  S
C83         C270   1.484       .  S
C84         C303   1.469       .  S
O85          V93   1.905       .  S
O85          C95   1.267       .  A
O86          V93   1.900       .  S
O86          C96   1.265       .  A
O87          V93   1.887       .  S
O87          C97   1.261       .  A
O88          V93   1.884       .  S
O88          C98   1.260       .  A
O89          V94   1.919       .  S
O89          C98   1.267       .  A
O90          V94   1.924       .  S
O90          C97   1.271       .  A
O91          V94   1.882       .  S
O91          C96   1.260       .  A
O92          V94   1.888       .  S
O92          C95   1.261       .  A
V93          V94   2.088       .  T
C95         C283   1.473       .  S
C96         C293   1.465       .  S
C97         C313   1.485       .  S
C98         C240   1.469       .  S
O99         V107   1.910       .  S
O99         C109   1.268       .  A
O100        V107   1.907       .  S
O100        C110   1.267       .  A
O101        V107   1.887       .  S
O101        C111   1.260       .  A
O102        V107   1.886       .  S
O102        C112   1.261       .  A
O103        V108   1.918       .  S
O103        C112   1.267       .  A
O104        V108   1.924       .  S
O104        C111   1.271       .  A
O105        V108   1.882       .  S
O105        C110   1.260       .  A
O106        V108   1.891       .  S
O106        C109   1.262       .  A
V107        V108   2.086       .  T
C109        C263   1.478       .  S
C110        C250   1.467       .  S
C111        C230   1.484       .  S
C112        C243   1.470       .  S
O113        V121   1.911       .  S
O113        C123   1.268       .  A
O114        V121   1.907       .  S
O114        C124   1.267       .  A
O115        V121   1.890       .  S
O115        C125   1.261       .  A
O116        V121   1.885       .  S
O116        C126   1.260       .  A
O117        V122   1.917       .  S
O117        C126   1.267       .  A
O118        V122   1.922       .  S
O118        C125   1.271       .  A
O119        V122   1.881       .  S
O119        C124   1.260       .  A
O120        V122   1.889       .  S
O120        C123   1.261       .  A
V121        V122   2.087       .  T
C123        C200   1.478       .  S
C124        C210   1.469       .  S
C125        C323   1.486       .  S
C126        C220   1.468       .  S
O127        V135   1.914       .  S
O127        C137   1.269       .  A
O128        V135   1.907       .  S
O128        C138   1.267       .  A
O129        V135   1.891       .  S
O129        C139   1.261       .  A
O130        V135   1.887       .  S
O130        C140   1.261       .  A
O131        V136   1.915       .  S
O131        C140   1.266       .  A
O132        V136   1.919       .  S
O132        C139   1.271       .  A
O133        V136   1.881       .  S
O133        C138   1.260       .  A
O134        V136   1.889       .  S
O134        C137   1.261       .  A
V135        V136   2.087       .  T
C137        C190   1.480       .  S
C138        C180   1.470       .  S
C139        C233   1.484       .  S
C140        C223   1.468       .  S
O141        V149   1.911       .  S
O141        C151   1.268       .  A
O142        V149   1.907       .  S
O142        C152   1.267       .  A
O143        V149   1.889       .  S
O143        C153   1.261       .  A
O144        V149   1.886       .  S
O144        C154   1.260       .  A
O145        V150   1.916       .  S
O145        C154   1.267       .  A
O146        V150   1.922       .  S
O146        C153   1.271       .  A
O147        V150   1.881       .  S
O147        C152   1.260       .  A
O148        V150   1.889       .  S
O148        C151   1.261       .  A
V149        V150   2.087       .  T
C151        C203   1.478       .  S
C152        C213   1.468       .  S
C153        C373   1.485       .  S
C154        C170   1.468       .  S
O155        V163   1.911       .  S
O155        C165   1.268       .  A
O156        V163   1.906       .  S
O156        C166   1.267       .  A
O157        V163   1.889       .  S
O157        C167   1.261       .  A
O158        V163   1.887       .  S
O158        C168   1.261       .  A
O159        V164   1.915       .  S
O159        C168   1.267       .  A
O160        V164   1.921       .  S
O160        C167   1.271       .  A
O161        V164   1.884       .  S
O161        C166   1.260       .  A
O162        V164   1.891       .  S
O162        C165   1.262       .  A
V163        V164   2.087       .  T
C165        C193   1.478       .  S
C166        C183   1.468       .  S
C167        C273   1.484       .  S
C168        C173   1.467       .  S
C169        C170   1.405       .  A
C169        C174   1.402       .  A
C169        H175   1.084       .  S
C170        C171   1.401       .  A
C171        C172   1.397       .  A
C171        H176   1.083       .  S
C172        C173   1.403       .  A
C172        H177   1.084       .  S
C173        C174   1.402       .  A
C174        H178   1.083       .  S
C179        C184   1.396   1_565  A
C179        C588   1.401       .  A
C179        H593   1.083       .  S
C180        C587   1.401       .  A
C180        C589   1.407       .  A
C181        C182   1.395       .  A
C181        C588   1.407   1_545  A
C181        H594   1.083       .  S
C182        C183   1.399       .  A
C182        H187   1.083       .  S
C183        C184   1.406       .  A
C184        H188   1.083       .  S
H185        C587   1.083       .  S
H186        C589   1.083       .  S
C189        C190   1.402       .  A
C189       C1010   1.400       .  A
C189        H195   1.083       .  S
C190        C191   1.409       .  A
C191       C1008   1.399   1_455  A
C191        H196   1.083       .  S
C192        C193   1.401       .  A
C192       C1007   1.399       .  A
C192        H197   1.083       .  S
C193        C194   1.408       .  A
C194       C1005   1.400       .  A
C194        H198   1.083       .  S
C199        C204   1.398       .  A
C199        C608   1.408   1_545  A
C199        H613   1.083       .  S
C200        C607   1.408       .  A
C200        C609   1.402       .  A
C201        C202   1.399   1_565  A
C201        C608   1.402       .  A
C201        H614   1.083       .  S
C202        C203   1.408       .  A
C202        H207   1.083       .  S
C203        C204   1.402       .  A
C204        H208   1.083       .  S
H205        C607   1.083       .  S
H206        C609   1.083       .  S
C209        C210   1.407       .  A
C209       C1030   1.395   1_455  A
C209        H215   1.083       .  S
C210        C211   1.400       .  A
C211       C1028   1.395       .  A
C211        H216   1.083       .  S
C212        C213   1.406       .  A
C212       C1027   1.395       .  A
C212        H217   1.083       .  S
C213        C214   1.400       .  A
C214       C1025   1.395       .  A
C214        H218   1.083       .  S
C219        C220   1.400       .  A
C219        C224   1.396       .  A
C219        H225   1.084       .  S
C220        C221   1.406       .  A
C221        C222   1.404       .  A
C221        H226   1.083       .  S
C222        C223   1.402       .  A
C222        H227   1.083       .  S
C223        C224   1.403       .  A
C224        H228   1.084       .  S
C229        C230   1.410       .  A
C229        C234   1.400       .  A
C229        H235   1.083       .  S
C230        C231   1.402       .  A
C231        C232   1.403       .  A
C231        H236   1.083       .  S
C232        C233   1.411       .  A
C232        H237   1.083       .  S
C233        C234   1.401       .  A
C234        H238   1.083       .  S
C239        C240   1.403       .  A
C239        C244   1.405       .  A
C239        H245   1.083       .  S
C240        C241   1.403       .  A
C241        C242   1.395       .  A
C241        H246   1.084       .  S
C242        C243   1.401       .  A
C242        H247   1.084       .  S
C243        C244   1.406       .  A
C244        H248   1.083       .  S
C249        C254   1.396       .  A
C249        C658   1.406   1_545  A
C249        H663   1.083       .  S
C250        C657   1.406       .  A
C250        C659   1.399       .  A
C251        C252   1.395   1_565  A
C251        C658   1.399       .  A
C251        H664   1.083       .  S
C252        C253   1.407       .  A
C252        H257   1.083       .  S
C253        C254   1.401       .  A
C254        H258   1.083       .  S
H255        C657   1.083       .  S
H256        C659   1.083       .  S
C259        C260   1.408       .  A
C259        C264   1.398       .  A
C259        H265   1.083       .  S
C260        C261   1.402       .  A
C261        C262   1.399       .  A
C261        H266   1.083       .  S
C262        C263   1.408       .  A
C262        H267   1.083       .  S
C263        C264   1.402       .  A
C264        H268   1.083       .  S
C269        C270   1.410       .  A
C269        C274   1.402       .  A
C269        H275   1.083       .  S
C270        C271   1.401       .  A
C271        C272   1.401       .  A
C271        H276   1.083       .  S
C272        C273   1.410       .  A
C272        H277   1.083       .  S
C273        C274   1.402       .  A
C274        H278   1.083       .  S
C279        C280   1.407       .  A
C279        C284   1.396   1_545  A
C279        H285   1.083       .  S
C280        C281   1.402       .  A
C281        C282   1.397       .  A
C281        H286   1.083       .  S
C282        C691   1.407   1_545  A
C282        H695   1.083       .  S
C283        C690   1.407       .  A
C283        C692   1.401       .  A
C284        C691   1.401       .  A
C284        H696   1.083       .  S
H287        C690   1.083       .  S
H288        C692   1.083       .  S
C289        C290   1.405       .  A
C289        C294   1.393       .  A
C289        H295   1.083       .  S
C290        C291   1.400       .  A
C291        C292   1.393       .  A
C291        H296   1.083       .  S
C292        C293   1.406       .  A
C292        H297   1.083       .  S
C293        C294   1.400       .  A
C294        H298   1.083       .  S
C299        C300   1.403       .  A
C299        C304   1.394       .  A
C299        H305   1.084       .  S
C300        C301   1.403       .  A
C301        C302   1.405       .  A
C301        H306   1.083       .  S
C302        C303   1.406       .  A
C302        H307   1.083       .  S
C303        C304   1.400       .  A
C304        H308   1.084       .  S
C309        C310   1.411       .  A
C309        C314   1.404       .  A
C309        H315   1.083       .  S
C310        C311   1.401       .  A
C311        C312   1.400       .  A
C311        H316   1.083       .  S
C312        C313   1.410       .  A
C312        H317   1.083       .  S
C313        C314   1.403       .  A
C314        H318   1.083       .  S
C319        C320   1.410       .  A
C319        C324   1.402       .  A
C319        H325   1.083       .  S
C320        C321   1.401       .  A
C321        C322   1.402       .  A
C321        H326   1.083       .  S
C322        C323   1.411       .  A
C322        H327   1.083       .  S
C323        C324   1.402       .  A
C324        H328   1.083       .  S
C329        C330   1.404       .  A
C329        C334   1.400   1_556  A
C329        H335   1.084       .  S
C330        C331   1.402       .  A
C331        C332   1.400   1_556  A
C331        H336   1.083       .  S
C332        C333   1.404       .  A
C332        H337   1.084       .  S
C333        C334   1.402       .  A
C334        H338   1.083       .  S
C339        C340   1.401       .  A
C339       C1160   1.398       .  A
C339        H345   1.083       .  S
C340        C341   1.408       .  A
C341       C1158   1.399       .  A
C341        H346   1.083       .  S
C342        C343   1.401       .  A
C342       C1157   1.399       .  A
C342        H347   1.083       .  S
C343        C344   1.408       .  A
C344       C1155   1.398   1_455  A
C344        H348   1.083       .  S
C349        C350   1.406       .  A
C349        C354   1.396       .  A
C349        H355   1.083       .  S
C350        C351   1.399       .  A
C351        C352   1.394       .  A
C351        H356   1.083       .  S
C352        C353   1.407       .  A
C352        H357   1.083       .  S
C353        C354   1.400       .  A
C354        H358   1.083       .  S
C359        C360   1.402       .  A
C359        C364   1.401       .  A
C359        H365   1.083       .  S
C360        C361   1.412       .  A
C361        C362   1.403       .  A
C361        H366   1.083       .  S
C362        C363   1.401       .  A
C362        H367   1.083       .  S
C363        C364   1.409       .  A
C364        H368   1.083       .  S
C369        C370   1.401       .  A
C369        C374   1.401       .  A
C369        H375   1.083       .  S
C370        C371   1.410       .  A
C371        C372   1.402       .  A
C371        H376   1.083       .  S
C372        C373   1.402       .  A
C372        H377   1.083       .  S
C373        C374   1.410       .  A
C374        H378   1.083       .  S
C379        C380   1.400       .  A
C379       C1200   1.395       .  A
C379        H385   1.083       .  S
C380        C381   1.406       .  A
C381       C1198   1.393       .  A
C381        H386   1.083       .  S
C382        C383   1.399       .  A
C382       C1197   1.393       .  A
C382        H387   1.083       .  S
C383        C384   1.406       .  A
C384       C1195   1.395   1_455  A
C384        H388   1.083       .  S
C389        C390   1.401       .  A
C389        C394   1.397       .  A
C389        H395   1.083       .  S
C390        C391   1.408       .  A
C391        C392   1.398       .  A
C391        H396   1.083       .  S
C392        C393   1.401       .  A
C392        H397   1.083       .  S
C393        C394   1.407       .  A
C394        H398   1.083       .  S
C399        C400   1.402       .  A
C399        C404   1.401   1_554  A
C399        H405   1.083       .  S
C400        C401   1.403       .  A
C401        C402   1.398   1_554  A
C401        H406   1.084       .  S
C402        C403   1.401       .  A
C402        H407   1.084       .  S
C403        C404   1.404       .  A
C404        H408   1.084       .  S
O409        V417   1.909       .  S
O409        C419   1.268       .  A
O410        V417   1.903       .  S
O410        C420   1.266       .  A
O411        V417   1.892       .  S
O411        C421   1.261       .  A
O412        V417   1.888       .  S
O412        C422   1.261       .  A
O413        V418   1.914       .  S
O413        C422   1.266       .  A
O414        V418   1.919       .  S
O414        C421   1.270       .  A
O415        V418   1.881       .  S
O415        C420   1.260       .  A
O416        V418   1.888       .  S
O416        C419   1.261       .  A
V417        V418   2.088       .  T
C419        C798   1.477       .  S
C420        C788   1.465       .  S
C421        C778   1.483       .  S
C422        C808   1.467       .  S
O423        V431   1.910       .  S
O423        C433   1.268       .  A
O424        V431   1.906       .  S
O424        C434   1.267       .  A
O425        V431   1.890       .  S
O425        C435   1.261       .  A
O426        V431   1.885       .  S
O426        C436   1.260       .  A
O427        V432   1.916       .  S
O427        C436   1.267       .  A
O428        V432   1.921       .  S
O428        C435   1.271       .  A
O429        V432   1.881       .  S
O429        C434   1.259       .  A
O430        V432   1.889       .  S
O430        C433   1.261       .  A
V431        V432   2.087       .  T
C433        C748   1.477       .  S
C434        C758   1.466       .  S
C435        C768   1.486       .  S
C436        C811   1.466       .  S
O437        V445   1.909       .  S
O437        C447   1.268       .  A
O438        V445   1.903       .  S
O438        C448   1.266       .  A
O439        V445   1.891       .  S
O439        C449   1.261       .  A
O440        V445   1.887       .  S
O440        C450   1.261       .  A
O441        V446   1.916       .  S
O441        C450   1.267       .  A
O442        V446   1.921       .  S
O442        C449   1.271       .  A
O443        V446   1.881       .  S
O443        C448   1.260       .  A
O444        V446   1.887       .  S
O444        C447   1.261       .  A
V445        V446   2.087       .  T
C447        C801   1.475       .  S
C448        C791   1.465       .  S
C449        C728   1.484       .  S
C450        C741   1.468       .  S
O451        V459   1.913       .  S
O451        C461   1.269       .  A
O452        V459   1.907       .  S
O452        C462   1.267       .  A
O453        V459   1.893       .  S
O453        C463   1.261       .  A
O454        V459   1.888       .  S
O454        C464   1.261       .  A
O455        V460   1.916       .  S
O455        C464   1.266       .  A
O456        V460   1.918       .  S
O456        C463   1.271       .  A
O457        V460   1.879       .  S
O457        C462   1.260       .  A
O458        V460   1.887       .  S
O458        C461   1.261       .  A
V459        V460   2.087       .  T
C461        C751   1.478       .  S
C462        C761   1.468       .  S
C463        C718   1.484       .  S
C464        C738   1.468       .  S
O465        V473   1.907       .  S
O465        C475   1.267       .  A
O466        V473   1.901       .  S
O466        C476   1.265       .  A
O467        V473   1.888       .  S
O467        C477   1.260       .  A
O468        V473   1.885       .  S
O468        C478   1.260       .  A
O469        V474   1.918       .  S
O469        C478   1.267       .  A
O470        V474   1.922       .  S
O470        C477   1.271       .  A
O471        V474   1.881       .  S
O471        C476   1.260       .  A
O472        V474   1.887       .  S
O472        C475   1.261       .  A
V473        V474   2.088       .  T
C475        C688   1.474       .  S
C476        C698   1.464       .  S
C477        C771   1.482       .  S
C478        C708   1.468       .  S
O479        V487   1.911       .  S
O479        C489   1.268       .  A
O480        V487   1.907       .  S
O480        C490   1.267       .  A
O481        V487   1.891       .  S
O481        C491   1.261       .  A
O482        V487   1.886       .  S
O482        C492   1.261       .  A
O483        V488   1.917       .  S
O483        C492   1.267       .  A
O484        V488   1.920       .  S
O484        C491   1.271       .  A
O485        V488   1.882       .  S
O485        C490   1.260       .  A
O486        V488   1.890       .  S
O486        C489   1.262       .  A
V487        V488   2.086       .  T
C489        C668   1.479       .  S
C490        C661   1.470       .  S
C491        C678   1.484       .  S
C492        C711   1.469       .  S
O493        V501   1.905       .  S
O493        C503   1.267       .  A
O494        V501   1.900       .  S
O494        C504   1.265       .  A
O495        V501   1.887       .  S
O495        C505   1.261       .  A
O496        V501   1.884       .  S
O496        C506   1.260       .  A
O497        V502   1.919       .  S
O497        C506   1.267       .  A
O498        V502   1.924       .  S
O498        C505   1.271       .  A
O499        V502   1.882       .  S
O499        C504   1.260       .  A
O500        V502   1.888       .  S
O500        C503   1.261       .  A
V501        V502   2.088       .  T
C503        C691   1.473       .  S
C504        C701   1.465       .  S
C505        C721   1.485       .  S
C506        C648   1.469       .  S
O507        V515   1.910       .  S
O507        C517   1.268       .  A
O508        V515   1.907       .  S
O508        C518   1.267       .  A
O509        V515   1.887       .  S
O509        C519   1.260       .  A
O510        V515   1.886       .  S
O510        C520   1.261       .  A
O511        V516   1.918       .  S
O511        C520   1.267       .  A
O512        V516   1.924       .  S
O512        C519   1.271       .  A
O513        V516   1.882       .  S
O513        C518   1.260       .  A
O514        V516   1.891       .  S
O514        C517   1.262       .  A
V515        V516   2.086       .  T
C517        C671   1.478       .  S
C518        C658   1.467       .  S
C519        C638   1.484       .  S
C520        C651   1.470       .  S
O521        V529   1.911       .  S
O521        C531   1.268       .  A
O522        V529   1.907       .  S
O522        C532   1.267       .  A
O523        V529   1.890       .  S
O523        C533   1.261       .  A
O524        V529   1.885       .  S
O524        C534   1.260       .  A
O525        V530   1.917       .  S
O525        C534   1.267       .  A
O526        V530   1.922       .  S
O526        C533   1.271       .  A
O527        V530   1.881       .  S
O527        C532   1.260       .  A
O528        V530   1.889       .  S
O528        C531   1.261       .  A
V529        V530   2.087       .  T
C531        C608   1.478       .  S
C532        C618   1.469       .  S
C533        C731   1.486       .  S
C534        C628   1.468       .  S
O535        V543   1.914       .  S
O535        C545   1.269       .  A
O536        V543   1.907       .  S
O536        C546   1.267       .  A
O537        V543   1.891       .  S
O537        C547   1.261       .  A
O538        V543   1.887       .  S
O538        C548   1.261       .  A
O539        V544   1.915       .  S
O539        C548   1.266       .  A
O540        V544   1.919       .  S
O540        C547   1.271       .  A
O541        V544   1.881       .  S
O541        C546   1.260       .  A
O542        V544   1.889       .  S
O542        C545   1.261       .  A
V543        V544   2.087       .  T
C545        C598   1.480       .  S
C546        C588   1.470       .  S
C547        C641   1.484       .  S
C548        C631   1.468       .  S
O549        V557   1.911       .  S
O549        C559   1.268       .  A
O550        V557   1.907       .  S
O550        C560   1.267       .  A
O551        V557   1.889       .  S
O551        C561   1.261       .  A
O552        V557   1.886       .  S
O552        C562   1.260       .  A
O553        V558   1.916       .  S
O553        C562   1.267       .  A
O554        V558   1.922       .  S
O554        C561   1.271       .  A
O555        V558   1.881       .  S
O555        C560   1.260       .  A
O556        V558   1.889       .  S
O556        C559   1.261       .  A
V557        V558   2.087       .  T
C559        C611   1.478       .  S
C560        C621   1.468       .  S
C561        C781   1.485       .  S
C562        C578   1.468       .  S
O563        V571   1.911       .  S
O563        C573   1.268       .  A
O564        V571   1.906       .  S
O564        C574   1.267       .  A
O565        V571   1.889       .  S
O565        C575   1.261       .  A
O566        V571   1.887       .  S
O566        C576   1.261       .  A
O567        V572   1.915       .  S
O567        C576   1.267       .  A
O568        V572   1.921       .  S
O568        C575   1.271       .  A
O569        V572   1.884       .  S
O569        C574   1.260       .  A
O570        V572   1.891       .  S
O570        C573   1.262       .  A
V571        V572   2.087       .  T
C573        C601   1.478       .  S
C574        C591   1.468       .  S
C575        C681   1.484       .  S
C576        C581   1.467       .  S
C577        C578   1.405       .  A
C577        C582   1.402       .  A
C577        H583   1.084       .  S
C578        C579   1.401       .  A
C579        C580   1.397       .  A
C579        H584   1.083       .  S
C580        C581   1.403       .  A
C580        H585   1.084       .  S
C581        C582   1.402       .  A
C582        H586   1.083       .  S
C587        C592   1.396       .  A
C589        C590   1.395       .  A
C590        C591   1.399       .  A
C590        H595   1.083       .  S
C591        C592   1.406       .  A
C592        H596   1.083       .  S
C597        C598   1.402       .  A
C597       C1418   1.400       .  A
C597        H603   1.083       .  S
C598        C599   1.409       .  A
C599       C1416   1.399   1_455  A
C599        H604   1.083       .  S
C600       C1415   1.399       .  A
C600        C601   1.401       .  A
C600        H605   1.083       .  S
C601        C602   1.408       .  A
C602       C1413   1.400       .  A
C602        H606   1.083       .  S
C607        C612   1.398       .  A
C609        C610   1.399       .  A
C610        C611   1.408       .  A
C610        H615   1.083       .  S
C611        C612   1.402       .  A
C612        H616   1.083       .  S
C617        C618   1.407       .  A
C617       C1438   1.395   1_455  A
C617        H623   1.083       .  S
C618        C619   1.400       .  A
C619       C1436   1.395       .  A
C619        H624   1.083       .  S
C620       C1435   1.395       .  A
C620        C621   1.406       .  A
C620        H625   1.083       .  S
C621        C622   1.400       .  A
C622       C1433   1.395       .  A
C622        H626   1.083       .  S
C627        C628   1.400       .  A
C627        C632   1.396       .  A
C627        H633   1.084       .  S
C628        C629   1.406       .  A
C629        C630   1.404       .  A
C629        H634   1.083       .  S
C630        C631   1.402       .  A
C630        H635   1.083       .  S
C631        C632   1.403       .  A
C632        H636   1.084       .  S
C637        C638   1.410       .  A
C637        C642   1.400       .  A
C637        H643   1.083       .  S
C638        C639   1.402       .  A
C639        C640   1.403       .  A
C639        H644   1.083       .  S
C640        C641   1.411       .  A
C640        H645   1.083       .  S
C641        C642   1.401       .  A
C642        H646   1.083       .  S
C647        C648   1.403       .  A
C647        C652   1.405       .  A
C647        H653   1.083       .  S
C648        C649   1.403       .  A
C649        C650   1.395       .  A
C649        H654   1.084       .  S
C650        C651   1.401       .  A
C650        H655   1.084       .  S
C651        C652   1.406       .  A
C652        H656   1.083       .  S
C657        C662   1.396       .  A
C659        C660   1.395       .  A
C660        C661   1.407       .  A
C660        H665   1.083       .  S
C661        C662   1.401       .  A
C662        H666   1.083       .  S
C667        C668   1.408       .  A
C667        C672   1.398       .  A
C667        H673   1.083       .  S
C668        C669   1.402       .  A
C669        C670   1.399       .  A
C669        H674   1.083       .  S
C670        C671   1.408       .  A
C670        H675   1.083       .  S
C671        C672   1.402       .  A
C672        H676   1.083       .  S
C677        C678   1.410       .  A
C677        C682   1.402       .  A
C677        H683   1.083       .  S
C678        C679   1.401       .  A
C679        C680   1.401       .  A
C679        H684   1.083       .  S
C680        C681   1.410       .  A
C680        H685   1.083       .  S
C681        C682   1.402       .  A
C682        H686   1.083       .  S
C687        C688   1.407       .  A
C687        C692   1.396       .  A
C687        H693   1.083       .  S
C688        C689   1.402       .  A
C689        C690   1.397       .  A
C689        H694   1.083       .  S
C697        C698   1.405       .  A
C697        C702   1.393       .  A
C697        H703   1.083       .  S
C698        C699   1.400       .  A
C699        C700   1.393       .  A
C699        H704   1.083       .  S
C700        C701   1.406       .  A
C700        H705   1.083       .  S
C701        C702   1.400       .  A
C702        H706   1.083       .  S
C707        C708   1.403       .  A
C707        C712   1.394       .  A
C707        H713   1.084       .  S
C708        C709   1.403       .  A
C709        C710   1.405       .  A
C709        H714   1.083       .  S
C710        C711   1.406       .  A
C710        H715   1.083       .  S
C711        C712   1.400       .  A
C712        H716   1.084       .  S
C717        C718   1.411       .  A
C717        C722   1.404       .  A
C717        H723   1.083       .  S
C718        C719   1.401       .  A
C719        C720   1.400       .  A
C719        H724   1.083       .  S
C720        C721   1.410       .  A
C720        H725   1.083       .  S
C721        C722   1.403       .  A
C722        H726   1.083       .  S
C727        C728   1.410       .  A
C727        C732   1.402       .  A
C727        H733   1.083       .  S
C728        C729   1.401       .  A
C729        C730   1.402       .  A
C729        H734   1.083       .  S
C730        C731   1.411       .  A
C730        H735   1.083       .  S
C731        C732   1.402       .  A
C732        H736   1.083       .  S
C737        C738   1.404       .  A
C737        C742   1.400   1_556  A
C737        H743   1.084       .  S
C738        C739   1.402       .  A
C739        C740   1.400   1_556  A
C739        H744   1.083       .  S
C740        C741   1.404       .  A
C740        H745   1.084       .  S
C741        C742   1.402       .  A
C742        H746   1.083       .  S
C747        C748   1.401       .  A
C747       C1568   1.398       .  A
C747        H753   1.083       .  S
C748        C749   1.408       .  A
C749       C1566   1.399       .  A
C749        H754   1.083       .  S
C750       C1565   1.399       .  A
C750        C751   1.401       .  A
C750        H755   1.083       .  S
C751        C752   1.408       .  A
C752       C1563   1.398   1_455  A
C752        H756   1.083       .  S
C757        C758   1.406       .  A
C757        C762   1.396       .  A
C757        H763   1.083       .  S
C758        C759   1.399       .  A
C759        C760   1.394       .  A
C759        H764   1.083       .  S
C760        C761   1.407       .  A
C760        H765   1.083       .  S
C761        C762   1.400       .  A
C762        H766   1.083       .  S
C767        C768   1.402       .  A
C767        C772   1.401       .  A
C767        H773   1.083       .  S
C768        C769   1.412       .  A
C769        C770   1.403       .  A
C769        H774   1.083       .  S
C770        C771   1.401       .  A
C770        H775   1.083       .  S
C771        C772   1.409       .  A
C772        H776   1.083       .  S
C777        C778   1.401       .  A
C777        C782   1.401       .  A
C777        H783   1.083       .  S
C778        C779   1.410       .  A
C779        C780   1.402       .  A
C779        H784   1.083       .  S
C780        C781   1.402       .  A
C780        H785   1.083       .  S
C781        C782   1.410       .  A
C782        H786   1.083       .  S
C787        C788   1.400       .  A
C787       C1608   1.395       .  A
C787        H793   1.083       .  S
C788        C789   1.406       .  A
C789       C1606   1.393       .  A
C789        H794   1.083       .  S
C790       C1605   1.393       .  A
C790        C791   1.399       .  A
C790        H795   1.083       .  S
C791        C792   1.406       .  A
C792       C1603   1.395   1_455  A
C792        H796   1.083       .  S
C797        C798   1.401       .  A
C797        C802   1.397       .  A
C797        H803   1.083       .  S
C798        C799   1.408       .  A
C799        C800   1.398       .  A
C799        H804   1.083       .  S
C800        C801   1.401       .  A
C800        H805   1.083       .  S
C801        C802   1.407       .  A
C802        H806   1.083       .  S
C807        C808   1.401       .  A
C807        C812   1.401   1_554  A
C807        H813   1.083       .  S
C808        C809   1.403       .  A
C809        C810   1.398   1_554  A
C809        H814   1.084       .  S
C810        C811   1.401       .  A
C810        H815   1.084       .  S
C811        C812   1.404       .  A
C812        H816   1.084       .  S
O817        V825   1.909       .  S
O817        C827   1.268       .  A
O818        V825   1.903       .  S
O818        C828   1.266       .  A
O819        V825   1.892       .  S
O819        C829   1.261       .  A
O820        V825   1.888       .  S
O820        C830   1.261       .  A
O821        V826   1.914       .  S
O821        C830   1.266       .  A
O822        V826   1.919       .  S
O822        C829   1.270       .  A
O823        V826   1.881       .  S
O823        C828   1.260       .  A
O824        V826   1.888       .  S
O824        C827   1.261       .  A
V825        V826   2.088       .  T
C827       C1206   1.477       .  S
C828       C1196   1.465       .  S
C829       C1186   1.483       .  S
C830       C1216   1.467       .  S
O831        V839   1.910       .  S
O831        C841   1.268       .  A
O832        V839   1.906       .  S
O832        C842   1.267       .  A
O833        V839   1.890       .  S
O833        C843   1.261       .  A
O834        V839   1.885       .  S
O834        C844   1.260       .  A
O835        V840   1.916       .  S
O835        C844   1.267       .  A
O836        V840   1.921       .  S
O836        C843   1.271       .  A
O837        V840   1.881       .  S
O837        C842   1.259       .  A
O838        V840   1.889       .  S
O838        C841   1.261       .  A
V839        V840   2.087       .  T
C841       C1156   1.477       .  S
C842       C1166   1.466       .  S
C843       C1176   1.486       .  S
C844       C1219   1.466       .  S
O845        V853   1.909       .  S
O845        C855   1.268       .  A
O846        V853   1.903       .  S
O846        C856   1.266       .  A
O847        V853   1.891       .  S
O847        C857   1.261       .  A
O848        V853   1.887       .  S
O848        C858   1.261       .  A
O849        V854   1.916       .  S
O849        C858   1.267       .  A
O850        V854   1.921       .  S
O850        C857   1.271       .  A
O851        V854   1.881       .  S
O851        C856   1.260       .  A
O852        V854   1.887       .  S
O852        C855   1.261       .  A
V853        V854   2.087       .  T
C855       C1209   1.475       .  S
C856       C1199   1.465       .  S
C857       C1136   1.484       .  S
C858       C1149   1.468       .  S
O859        V867   1.913       .  S
O859        C869   1.269       .  A
O860        V867   1.907       .  S
O860        C870   1.267       .  A
O861        V867   1.893       .  S
O861        C871   1.261       .  A
O862        V867   1.888       .  S
O862        C872   1.261       .  A
O863        V868   1.916       .  S
O863        C872   1.267       .  A
O864        V868   1.918       .  S
O864        C871   1.271       .  A
O865        V868   1.879       .  S
O865        C870   1.260       .  A
O866        V868   1.887       .  S
O866        C869   1.261       .  A
V867        V868   2.087       .  T
C869       C1159   1.478       .  S
C870       C1169   1.468       .  S
C871       C1126   1.484       .  S
C872       C1146   1.468       .  S
O873        V881   1.907       .  S
O873        C883   1.267       .  A
O874        V881   1.901       .  S
O874        C884   1.265       .  A
O875        V881   1.888       .  S
O875        C885   1.260       .  A
O876        V881   1.885       .  S
O876        C886   1.260       .  A
O877        V882   1.918       .  S
O877        C886   1.267       .  A
O878        V882   1.922       .  S
O878        C885   1.271       .  A
O879        V882   1.881       .  S
O879        C884   1.260       .  A
O880        V882   1.887       .  S
O880        C883   1.261       .  A
V881        V882   2.088       .  T
C883       C1096   1.474       .  S
C884       C1106   1.464       .  S
C885       C1179   1.482       .  S
C886       C1116   1.468       .  S
O887        V895   1.911       .  S
O887        C897   1.268       .  A
O888        V895   1.907       .  S
O888        C898   1.267       .  A
O889        V895   1.891       .  S
O889        C899   1.261       .  A
O890        V895   1.886       .  S
O890        C900   1.261       .  A
O891        V896   1.917       .  S
O891        C900   1.267       .  A
O892        V896   1.920       .  S
O892        C899   1.271       .  A
O893        V896   1.882       .  S
O893        C898   1.260       .  A
O894        V896   1.890       .  S
O894        C897   1.262       .  A
V895        V896   2.086       .  T
C897       C1076   1.479       .  S
C898       C1069   1.470       .  S
C899       C1086   1.484       .  S
C900       C1119   1.469       .  S
O901        V909   1.905       .  S
O901        C911   1.267       .  A
O902        V909   1.900       .  S
O902        C912   1.265       .  A
O903        V909   1.887       .  S
O903        C913   1.261       .  A
O904        V909   1.884       .  S
O904        C914   1.260       .  A
O905        V910   1.919       .  S
O905        C914   1.267       .  A
O906        V910   1.924       .  S
O906        C913   1.271       .  A
O907        V910   1.882       .  S
O907        C912   1.260       .  A
O908        V910   1.888       .  S
O908        C911   1.261       .  A
V909        V910   2.088       .  T
C911       C1099   1.473       .  S
C912       C1109   1.465       .  S
C913       C1129   1.485       .  S
C914       C1056   1.469       .  S
O915        V923   1.910       .  S
O915        C925   1.268       .  A
O916        V923   1.907       .  S
O916        C926   1.267       .  A
O917        V923   1.887       .  S
O917        C927   1.260       .  A
O918        V923   1.886       .  S
O918        C928   1.261       .  A
O919        V924   1.918       .  S
O919        C928   1.267       .  A
O920        V924   1.924       .  S
O920        C927   1.271       .  A
O921        V924   1.882       .  S
O921        C926   1.260       .  A
O922        V924   1.891       .  S
O922        C925   1.262       .  A
V923        V924   2.086       .  T
C925       C1079   1.478       .  S
C926       C1066   1.467       .  S
C927       C1046   1.484       .  S
C928       C1059   1.470       .  S
O929        V937   1.911       .  S
O929        C939   1.268       .  A
O930        V937   1.907       .  S
O930        C940   1.267       .  A
O931        V937   1.890       .  S
O931        C941   1.261       .  A
O932        V937   1.885       .  S
O932        C942   1.260       .  A
O933        V938   1.917       .  S
O933        C942   1.267       .  A
O934        V938   1.922       .  S
O934        C941   1.271       .  A
O935        V938   1.881       .  S
O935        C940   1.260       .  A
O936        V938   1.889       .  S
O936        C939   1.261       .  A
V937        V938   2.087       .  T
C939       C1016   1.478       .  S
C940       C1026   1.469       .  S
C941       C1139   1.486       .  S
C942       C1036   1.468       .  S
O943        V951   1.914       .  S
O943        C953   1.269       .  A
O944        V951   1.907       .  S
O944        C954   1.267       .  A
O945        V951   1.891       .  S
O945        C955   1.261       .  A
O946        V951   1.887       .  S
O946        C956   1.261       .  A
O947        V952   1.915       .  S
O947        C956   1.266       .  A
O948        V952   1.919       .  S
O948        C955   1.271       .  A
O949        V952   1.881       .  S
O949        C954   1.260       .  A
O950        V952   1.889       .  S
O950        C953   1.261       .  A
V951        V952   2.087       .  T
C953       C1006   1.480       .  S
C954        C996   1.470       .  S
C955       C1049   1.484       .  S
C956       C1039   1.468       .  S
O957        V965   1.911       .  S
O957        C967   1.268       .  A
O958        V965   1.907       .  S
O958        C968   1.267       .  A
O959        V965   1.889       .  S
O959        C969   1.261       .  A
O960        V965   1.886       .  S
O960        C970   1.260       .  A
O961        V966   1.916       .  S
O961        C970   1.267       .  A
O962        V966   1.922       .  S
O962        C969   1.271       .  A
O963        V966   1.881       .  S
O963        C968   1.260       .  A
O964        V966   1.889       .  S
O964        C967   1.261       .  A
V965        V966   2.087       .  T
C967       C1019   1.478       .  S
C968       C1029   1.468       .  S
C969       C1189   1.485       .  S
C970        C986   1.468       .  S
O971        V979   1.911       .  S
O971        C981   1.268       .  A
O972        V979   1.906       .  S
O972        C982   1.267       .  A
O973        V979   1.889       .  S
O973        C983   1.261       .  A
O974        V979   1.887       .  S
O974        C984   1.261       .  A
O975        V980   1.915       .  S
O975        C984   1.267       .  A
O976        V980   1.921       .  S
O976        C983   1.271       .  A
O977        V980   1.884       .  S
O977        C982   1.260       .  A
O978        V980   1.891       .  S
O978        C981   1.262       .  A
V979        V980   2.087       .  T
C981       C1009   1.478       .  S
C982        C999   1.468       .  S
C983       C1089   1.484       .  S
C984        C989   1.467       .  S
C985        C986   1.405       .  A
C985        C990   1.402       .  A
C985        H991   1.084       .  S
C986        C987   1.401       .  A
C987        C988   1.397       .  A
C987        H992   1.083       .  S
C988        C989   1.403       .  A
C988        H993   1.084       .  S
C989        C990   1.402       .  A
C990        H994   1.083       .  S
C995       C1404   1.401       .  A
C995       C1000   1.396   1_565  A
C995       H1409   1.083       .  S
C996       C1403   1.401       .  A
C996       C1405   1.407       .  A
C997       C1404   1.407   1_545  A
C997        C998   1.395       .  A
C997       H1410   1.083       .  S
C998        C999   1.399       .  A
C998       H1003   1.083       .  S
C999       C1000   1.406       .  A
C1000      H1004   1.083       .  S
H1001      C1403   1.083       .  S
H1002      C1405   1.083       .  S
C1005      C1006   1.402       .  A
C1005      H1011   1.083       .  S
C1006      C1007   1.409       .  A
C1007      H1012   1.083       .  S
C1008      C1009   1.401       .  A
C1008      H1013   1.083       .  S
C1009      C1010   1.408   1_655  A
C1010      H1014   1.083       .  S
C1015      C1424   1.408   1_545  A
C1015      C1020   1.398       .  A
C1015      H1429   1.083       .  S
C1016      C1423   1.408       .  A
C1016      C1425   1.402       .  A
C1017      C1424   1.402       .  A
C1017      C1018   1.399   1_565  A
C1017      H1430   1.083       .  S
C1018      C1019   1.408       .  A
C1018      H1023   1.083       .  S
C1019      C1020   1.402       .  A
C1020      H1024   1.083       .  S
H1021      C1423   1.083       .  S
H1022      C1425   1.083       .  S
C1025      C1026   1.407       .  A
C1025      H1031   1.083       .  S
C1026      C1027   1.400       .  A
C1027      H1032   1.083       .  S
C1028      C1029   1.406   1_455  A
C1028      H1033   1.083       .  S
C1029      C1030   1.400       .  A
C1030      H1034   1.083       .  S
C1035      C1036   1.400       .  A
C1035      C1040   1.396       .  A
C1035      H1041   1.084       .  S
C1036      C1037   1.406       .  A
C1037      C1038   1.404       .  A
C1037      H1042   1.083       .  S
C1038      C1039   1.402       .  A
C1038      H1043   1.083       .  S
C1039      C1040   1.403       .  A
C1040      H1044   1.084       .  S
C1045      C1046   1.410       .  A
C1045      C1050   1.400       .  A
C1045      H1051   1.083       .  S
C1046      C1047   1.402       .  A
C1047      C1048   1.403       .  A
C1047      H1052   1.083       .  S
C1048      C1049   1.411       .  A
C1048      H1053   1.083       .  S
C1049      C1050   1.401       .  A
C1050      H1054   1.083       .  S
C1055      C1056   1.403       .  A
C1055      C1060   1.405       .  A
C1055      H1061   1.083       .  S
C1056      C1057   1.403       .  A
C1057      C1058   1.395       .  A
C1057      H1062   1.084       .  S
C1058      C1059   1.401       .  A
C1058      H1063   1.084       .  S
C1059      C1060   1.406       .  A
C1060      H1064   1.083       .  S
C1065      C1474   1.406   1_545  A
C1065      C1070   1.396       .  A
C1065      H1479   1.083       .  S
C1066      C1473   1.406       .  A
C1066      C1475   1.399       .  A
C1067      C1474   1.399       .  A
C1067      C1068   1.395   1_565  A
C1067      H1480   1.083       .  S
C1068      C1069   1.407       .  A
C1068      H1073   1.083       .  S
C1069      C1070   1.401       .  A
C1070      H1074   1.083       .  S
H1071      C1473   1.083       .  S
H1072      C1475   1.083       .  S
C1075      C1076   1.408       .  A
C1075      C1080   1.398       .  A
C1075      H1081   1.083       .  S
C1076      C1077   1.402       .  A
C1077      C1078   1.399       .  A
C1077      H1082   1.083       .  S
C1078      C1079   1.408       .  A
C1078      H1083   1.083       .  S
C1079      C1080   1.402       .  A
C1080      H1084   1.083       .  S
C1085      C1086   1.410       .  A
C1085      C1090   1.402       .  A
C1085      H1091   1.083       .  S
C1086      C1087   1.401       .  A
C1087      C1088   1.401       .  A
C1087      H1092   1.083       .  S
C1088      C1089   1.410       .  A
C1088      H1093   1.083       .  S
C1089      C1090   1.402       .  A
C1090      H1094   1.083       .  S
C1095      C1096   1.407       .  A
C1095      C1100   1.396   1_545  A
C1095      H1101   1.083       .  S
C1096      C1097   1.402       .  A
C1097      C1098   1.397       .  A
C1097      H1102   1.083       .  S
C1098      C1507   1.407   1_545  A
C1098      H1511   1.083       .  S
C1099      C1506   1.407       .  A
C1099      C1508   1.401       .  A
C1100      C1507   1.401       .  A
C1100      H1512   1.083       .  S
H1103      C1506   1.083       .  S
H1104      C1508   1.083       .  S
C1105      C1106   1.405       .  A
C1105      C1110   1.393       .  A
C1105      H1111   1.083       .  S
C1106      C1107   1.400       .  A
C1107      C1108   1.393       .  A
C1107      H1112   1.083       .  S
C1108      C1109   1.406       .  A
C1108      H1113   1.083       .  S
C1109      C1110   1.400       .  A
C1110      H1114   1.083       .  S
C1115      C1116   1.403       .  A
C1115      C1120   1.394       .  A
C1115      H1121   1.084       .  S
C1116      C1117   1.403       .  A
C1117      C1118   1.405       .  A
C1117      H1122   1.083       .  S
C1118      C1119   1.406       .  A
C1118      H1123   1.083       .  S
C1119      C1120   1.400       .  A
C1120      H1124   1.084       .  S
C1125      C1126   1.411       .  A
C1125      C1130   1.404       .  A
C1125      H1131   1.083       .  S
C1126      C1127   1.401       .  A
C1127      C1128   1.400       .  A
C1127      H1132   1.083       .  S
C1128      C1129   1.410       .  A
C1128      H1133   1.083       .  S
C1129      C1130   1.403       .  A
C1130      H1134   1.083       .  S
C1135      C1136   1.410       .  A
C1135      C1140   1.402       .  A
C1135      H1141   1.083       .  S
C1136      C1137   1.401       .  A
C1137      C1138   1.402       .  A
C1137      H1142   1.083       .  S
C1138      C1139   1.411       .  A
C1138      H1143   1.083       .  S
C1139      C1140   1.402       .  A
C1140      H1144   1.083       .  S
C1145      C1146   1.404       .  A
C1145      C1150   1.400   1_556  A
C1145      H1151   1.084       .  S
C1146      C1147   1.402       .  A
C1147      C1148   1.400   1_556  A
C1147      H1152   1.083       .  S
C1148      C1149   1.404       .  A
C1148      H1153   1.084       .  S
C1149      C1150   1.402       .  A
C1150      H1154   1.083       .  S
C1155      C1156   1.401       .  A
C1155      H1161   1.083       .  S
C1156      C1157   1.408   1_655  A
C1157      H1162   1.083       .  S
C1158      C1159   1.401       .  A
C1158      H1163   1.083       .  S
C1159      C1160   1.408       .  A
C1160      H1164   1.083       .  S
C1165      C1166   1.406       .  A
C1165      C1170   1.396       .  A
C1165      H1171   1.083       .  S
C1166      C1167   1.399       .  A
C1167      C1168   1.394       .  A
C1167      H1172   1.083       .  S
C1168      C1169   1.407       .  A
C1168      H1173   1.083       .  S
C1169      C1170   1.400       .  A
C1170      H1174   1.083       .  S
C1175      C1176   1.402       .  A
C1175      C1180   1.401       .  A
C1175      H1181   1.083       .  S
C1176      C1177   1.412       .  A
C1177      C1178   1.403       .  A
C1177      H1182   1.083       .  S
C1178      C1179   1.401       .  A
C1178      H1183   1.083       .  S
C1179      C1180   1.409       .  A
C1180      H1184   1.083       .  S
C1185      C1186   1.401       .  A
C1185      C1190   1.401       .  A
C1185      H1191   1.083       .  S
C1186      C1187   1.410       .  A
C1187      C1188   1.402       .  A
C1187      H1192   1.083       .  S
C1188      C1189   1.402       .  A
C1188      H1193   1.083       .  S
C1189      C1190   1.410       .  A
C1190      H1194   1.083       .  S
C1195      C1196   1.400       .  A
C1195      H1201   1.083       .  S
C1196      C1197   1.406   1_655  A
C1197      H1202   1.083       .  S
C1198      C1199   1.399       .  A
C1198      H1203   1.083       .  S
C1199      C1200   1.406       .  A
C1200      H1204   1.083       .  S
C1205      C1206   1.401       .  A
C1205      C1210   1.397       .  A
C1205      H1211   1.083       .  S
C1206      C1207   1.408       .  A
C1207      C1208   1.398       .  A
C1207      H1212   1.083       .  S
C1208      C1209   1.401       .  A
C1208      H1213   1.083       .  S
C1209      C1210   1.407       .  A
C1210      H1214   1.083       .  S
C1215      C1216   1.401       .  A
C1215      C1220   1.401   1_554  A
C1215      H1221   1.083       .  S
C1216      C1217   1.403       .  A
C1217      C1218   1.398   1_554  A
C1217      H1222   1.084       .  S
C1218      C1219   1.401       .  A
C1218      H1223   1.084       .  S
C1219      C1220   1.404       .  A
C1220      H1224   1.084       .  S
O1225      V1233   1.909       .  S
O1225      C1235   1.268       .  A
O1226      V1233   1.903       .  S
O1226      C1236   1.266       .  A
O1227      V1233   1.892       .  S
O1227      C1237   1.261       .  A
O1228      V1233   1.888       .  S
O1228      C1238   1.261       .  A
O1229      V1234   1.914       .  S
O1229      C1238   1.266       .  A
O1230      V1234   1.919       .  S
O1230      C1237   1.270       .  A
O1231      V1234   1.881       .  S
O1231      C1236   1.260       .  A
O1232      V1234   1.888       .  S
O1232      C1235   1.261       .  A
V1233      V1234   2.088       .  T
C1235      C1614   1.477       .  S
C1236      C1604   1.465       .  S
C1237      C1594   1.483       .  S
C1238      C1624   1.467       .  S
O1239      V1247   1.910       .  S
O1239      C1249   1.268       .  A
O1240      V1247   1.906       .  S
O1240      C1250   1.267       .  A
O1241      V1247   1.890       .  S
O1241      C1251   1.261       .  A
O1242      V1247   1.885       .  S
O1242      C1252   1.260       .  A
O1243      V1248   1.916       .  S
O1243      C1252   1.267       .  A
O1244      V1248   1.921       .  S
O1244      C1251   1.271       .  A
O1245      V1248   1.881       .  S
O1245      C1250   1.259       .  A
O1246      V1248   1.889       .  S
O1246      C1249   1.261       .  A
V1247      V1248   2.087       .  T
C1249      C1564   1.477       .  S
C1250      C1574   1.466       .  S
C1251      C1584   1.486       .  S
C1252      C1627   1.466       .  S
O1253      V1261   1.909       .  S
O1253      C1263   1.268       .  A
O1254      V1261   1.903       .  S
O1254      C1264   1.266       .  A
O1255      V1261   1.891       .  S
O1255      C1265   1.261       .  A
O1256      V1261   1.887       .  S
O1256      C1266   1.261       .  A
O1257      V1262   1.916       .  S
O1257      C1266   1.267       .  A
O1258      V1262   1.921       .  S
O1258      C1265   1.271       .  A
O1259      V1262   1.881       .  S
O1259      C1264   1.260       .  A
O1260      V1262   1.887       .  S
O1260      C1263   1.261       .  A
V1261      V1262   2.087       .  T
C1263      C1617   1.475       .  S
C1264      C1607   1.465       .  S
C1265      C1544   1.484       .  S
C1266      C1557   1.468       .  S
O1267      V1275   1.913       .  S
O1267      C1277   1.269       .  A
O1268      V1275   1.907       .  S
O1268      C1278   1.267       .  A
O1269      V1275   1.893       .  S
O1269      C1279   1.261       .  A
O1270      V1275   1.888       .  S
O1270      C1280   1.261       .  A
O1271      V1276   1.916       .  S
O1271      C1280   1.267       .  A
O1272      V1276   1.918       .  S
O1272      C1279   1.271       .  A
O1273      V1276   1.879       .  S
O1273      C1278   1.260       .  A
O1274      V1276   1.887       .  S
O1274      C1277   1.261       .  A
V1275      V1276   2.087       .  T
C1277      C1567   1.478       .  S
C1278      C1577   1.468       .  S
C1279      C1534   1.484       .  S
C1280      C1554   1.468       .  S
O1281      V1289   1.907       .  S
O1281      C1291   1.267       .  A
O1282      V1289   1.901       .  S
O1282      C1292   1.265       .  A
O1283      V1289   1.888       .  S
O1283      C1293   1.260       .  A
O1284      V1289   1.885       .  S
O1284      C1294   1.260       .  A
O1285      V1290   1.918       .  S
O1285      C1294   1.267       .  A
O1286      V1290   1.922       .  S
O1286      C1293   1.271       .  A
O1287      V1290   1.881       .  S
O1287      C1292   1.260       .  A
O1288      V1290   1.887       .  S
O1288      C1291   1.261       .  A
V1289      V1290   2.088       .  T
C1291      C1504   1.474       .  S
C1292      C1514   1.464       .  S
C1293      C1587   1.482       .  S
C1294      C1524   1.468       .  S
O1295      V1303   1.911       .  S
O1295      C1305   1.268       .  A
O1296      V1303   1.907       .  S
O1296      C1306   1.267       .  A
O1297      V1303   1.891       .  S
O1297      C1307   1.261       .  A
O1298      V1303   1.886       .  S
O1298      C1308   1.261       .  A
O1299      V1304   1.917       .  S
O1299      C1308   1.267       .  A
O1300      V1304   1.920       .  S
O1300      C1307   1.271       .  A
O1301      V1304   1.882       .  S
O1301      C1306   1.260       .  A
O1302      V1304   1.890       .  S
O1302      C1305   1.262       .  A
V1303      V1304   2.086       .  T
C1305      C1484   1.479       .  S
C1306      C1477   1.470       .  S
C1307      C1494   1.484       .  S
C1308      C1527   1.469       .  S
O1309      V1317   1.905       .  S
O1309      C1319   1.267       .  A
O1310      V1317   1.900       .  S
O1310      C1320   1.265       .  A
O1311      V1317   1.887       .  S
O1311      C1321   1.261       .  A
O1312      V1317   1.884       .  S
O1312      C1322   1.260       .  A
O1313      V1318   1.919       .  S
O1313      C1322   1.267       .  A
O1314      V1318   1.924       .  S
O1314      C1321   1.271       .  A
O1315      V1318   1.882       .  S
O1315      C1320   1.260       .  A
O1316      V1318   1.888       .  S
O1316      C1319   1.261       .  A
V1317      V1318   2.088       .  T
C1319      C1507   1.473       .  S
C1320      C1517   1.465       .  S
C1321      C1537   1.485       .  S
C1322      C1464   1.469       .  S
O1323      V1331   1.910       .  S
O1323      C1333   1.268       .  A
O1324      V1331   1.907       .  S
O1324      C1334   1.267       .  A
O1325      V1331   1.887       .  S
O1325      C1335   1.260       .  A
O1326      V1331   1.886       .  S
O1326      C1336   1.261       .  A
O1327      V1332   1.918       .  S
O1327      C1336   1.267       .  A
O1328      V1332   1.924       .  S
O1328      C1335   1.271       .  A
O1329      V1332   1.882       .  S
O1329      C1334   1.260       .  A
O1330      V1332   1.891       .  S
O1330      C1333   1.262       .  A
V1331      V1332   2.086       .  T
C1333      C1487   1.478       .  S
C1334      C1474   1.467       .  S
C1335      C1454   1.484       .  S
C1336      C1467   1.470       .  S
O1337      V1345   1.911       .  S
O1337      C1347   1.268       .  A
O1338      V1345   1.907       .  S
O1338      C1348   1.267       .  A
O1339      V1345   1.890       .  S
O1339      C1349   1.261       .  A
O1340      V1345   1.885       .  S
O1340      C1350   1.260       .  A
O1341      V1346   1.917       .  S
O1341      C1350   1.267       .  A
O1342      V1346   1.922       .  S
O1342      C1349   1.271       .  A
O1343      V1346   1.881       .  S
O1343      C1348   1.260       .  A
O1344      V1346   1.889       .  S
O1344      C1347   1.261       .  A
V1345      V1346   2.087       .  T
C1347      C1424   1.478       .  S
C1348      C1434   1.469       .  S
C1349      C1547   1.486       .  S
C1350      C1444   1.468       .  S
O1351      V1359   1.914       .  S
O1351      C1361   1.269       .  A
O1352      V1359   1.907       .  S
O1352      C1362   1.267       .  A
O1353      V1359   1.891       .  S
O1353      C1363   1.261       .  A
O1354      V1359   1.887       .  S
O1354      C1364   1.261       .  A
O1355      V1360   1.915       .  S
O1355      C1364   1.266       .  A
O1356      V1360   1.919       .  S
O1356      C1363   1.271       .  A
O1357      V1360   1.881       .  S
O1357      C1362   1.260       .  A
O1358      V1360   1.889       .  S
O1358      C1361   1.261       .  A
V1359      V1360   2.087       .  T
C1361      C1414   1.480       .  S
C1362      C1404   1.470       .  S
C1363      C1457   1.484       .  S
C1364      C1447   1.468       .  S
O1365      V1373   1.911       .  S
O1365      C1375   1.268       .  A
O1366      V1373   1.907       .  S
O1366      C1376   1.267       .  A
O1367      V1373   1.889       .  S
O1367      C1377   1.261       .  A
O1368      V1373   1.886       .  S
O1368      C1378   1.260       .  A
O1369      V1374   1.916       .  S
O1369      C1378   1.267       .  A
O1370      V1374   1.922       .  S
O1370      C1377   1.271       .  A
O1371      V1374   1.881       .  S
O1371      C1376   1.260       .  A
O1372      V1374   1.889       .  S
O1372      C1375   1.261       .  A
V1373      V1374   2.087       .  T
C1375      C1427   1.478       .  S
C1376      C1437   1.468       .  S
C1377      C1597   1.485       .  S
C1378      C1394   1.468       .  S
O1379      V1387   1.911       .  S
O1379      C1389   1.268       .  A
O1380      V1387   1.906       .  S
O1380      C1390   1.267       .  A
O1381      V1387   1.889       .  S
O1381      C1391   1.261       .  A
O1382      V1387   1.887       .  S
O1382      C1392   1.261       .  A
O1383      V1388   1.915       .  S
O1383      C1392   1.267       .  A
O1384      V1388   1.921       .  S
O1384      C1391   1.271       .  A
O1385      V1388   1.884       .  S
O1385      C1390   1.260       .  A
O1386      V1388   1.891       .  S
O1386      C1389   1.262       .  A
V1387      V1388   2.087       .  T
C1389      C1417   1.478       .  S
C1390      C1407   1.468       .  S
C1391      C1497   1.484       .  S
C1392      C1397   1.467       .  S
C1393      C1394   1.405       .  A
C1393      C1398   1.402       .  A
C1393      H1399   1.084       .  S
C1394      C1395   1.401       .  A
C1395      C1396   1.397       .  A
C1395      H1400   1.083       .  S
C1396      C1397   1.403       .  A
C1396      H1401   1.084       .  S
C1397      C1398   1.402       .  A
C1398      H1402   1.083       .  S
C1403      C1408   1.396       .  A
C1405      C1406   1.395       .  A
C1406      C1407   1.399       .  A
C1406      H1411   1.083       .  S
C1407      C1408   1.406       .  A
C1408      H1412   1.083       .  S
C1413      C1414   1.402       .  A
C1413      H1419   1.083       .  S
C1414      C1415   1.409       .  A
C1415      H1420   1.083       .  S
C1416      C1417   1.401       .  A
C1416      H1421   1.083       .  S
C1417      C1418   1.408   1_655  A
C1418      H1422   1.083       .  S
C1423      C1428   1.398       .  A
C1425      C1426   1.399       .  A
C1426      C1427   1.408       .  A
C1426      H1431   1.083       .  S
C1427      C1428   1.402       .  A
C1428      H1432   1.083       .  S
C1433      C1434   1.407       .  A
C1433      H1439   1.083       .  S
C1434      C1435   1.400       .  A
C1435      H1440   1.083       .  S
C1436      C1437   1.406   1_455  A
C1436      H1441   1.083       .  S
C1437      C1438   1.400       .  A
C1438      H1442   1.083       .  S
C1443      C1444   1.400       .  A
C1443      C1448   1.396       .  A
C1443      H1449   1.084       .  S
C1444      C1445   1.406       .  A
C1445      C1446   1.404       .  A
C1445      H1450   1.083       .  S
C1446      C1447   1.402       .  A
C1446      H1451   1.083       .  S
C1447      C1448   1.403       .  A
C1448      H1452   1.084       .  S
C1453      C1454   1.410       .  A
C1453      C1458   1.400       .  A
C1453      H1459   1.083       .  S
C1454      C1455   1.402       .  A
C1455      C1456   1.403       .  A
C1455      H1460   1.083       .  S
C1456      C1457   1.411       .  A
C1456      H1461   1.083       .  S
C1457      C1458   1.401       .  A
C1458      H1462   1.083       .  S
C1463      C1464   1.403       .  A
C1463      C1468   1.405       .  A
C1463      H1469   1.083       .  S
C1464      C1465   1.403       .  A
C1465      C1466   1.395       .  A
C1465      H1470   1.084       .  S
C1466      C1467   1.401       .  A
C1466      H1471   1.084       .  S
C1467      C1468   1.406       .  A
C1468      H1472   1.083       .  S
C1473      C1478   1.396       .  A
C1475      C1476   1.395       .  A
C1476      C1477   1.407       .  A
C1476      H1481   1.083       .  S
C1477      C1478   1.401       .  A
C1478      H1482   1.083       .  S
C1483      C1484   1.408       .  A
C1483      C1488   1.398       .  A
C1483      H1489   1.083       .  S
C1484      C1485   1.402       .  A
C1485      C1486   1.399       .  A
C1485      H1490   1.083       .  S
C1486      C1487   1.408       .  A
C1486      H1491   1.083       .  S
C1487      C1488   1.402       .  A
C1488      H1492   1.083       .  S
C1493      C1494   1.410       .  A
C1493      C1498   1.402       .  A
C1493      H1499   1.083       .  S
C1494      C1495   1.401       .  A
C1495      C1496   1.401       .  A
C1495      H1500   1.083       .  S
C1496      C1497   1.410       .  A
C1496      H1501   1.083       .  S
C1497      C1498   1.402       .  A
C1498      H1502   1.083       .  S
C1503      C1504   1.407       .  A
C1503      C1508   1.396       .  A
C1503      H1509   1.083       .  S
C1504      C1505   1.402       .  A
C1505      C1506   1.397       .  A
C1505      H1510   1.083       .  S
C1513      C1514   1.405       .  A
C1513      C1518   1.393       .  A
C1513      H1519   1.083       .  S
C1514      C1515   1.400       .  A
C1515      C1516   1.393       .  A
C1515      H1520   1.083       .  S
C1516      C1517   1.406       .  A
C1516      H1521   1.083       .  S
C1517      C1518   1.400       .  A
C1518      H1522   1.083       .  S
C1523      C1524   1.403       .  A
C1523      C1528   1.394       .  A
C1523      H1529   1.084       .  S
C1524      C1525   1.403       .  A
C1525      C1526   1.405       .  A
C1525      H1530   1.083       .  S
C1526      C1527   1.406       .  A
C1526      H1531   1.083       .  S
C1527      C1528   1.400       .  A
C1528      H1532   1.084       .  S
C1533      C1534   1.411       .  A
C1533      C1538   1.404       .  A
C1533      H1539   1.083       .  S
C1534      C1535   1.401       .  A
C1535      C1536   1.400       .  A
C1535      H1540   1.083       .  S
C1536      C1537   1.410       .  A
C1536      H1541   1.083       .  S
C1537      C1538   1.403       .  A
C1538      H1542   1.083       .  S
C1543      C1544   1.410       .  A
C1543      C1548   1.402       .  A
C1543      H1549   1.083       .  S
C1544      C1545   1.401       .  A
C1545      C1546   1.402       .  A
C1545      H1550   1.083       .  S
C1546      C1547   1.411       .  A
C1546      H1551   1.083       .  S
C1547      C1548   1.402       .  A
C1548      H1552   1.083       .  S
C1553      C1554   1.404       .  A
C1553      C1558   1.400   1_556  A
C1553      H1559   1.084       .  S
C1554      C1555   1.402       .  A
C1555      C1556   1.400   1_556  A
C1555      H1560   1.083       .  S
C1556      C1557   1.404       .  A
C1556      H1561   1.084       .  S
C1557      C1558   1.402       .  A
C1558      H1562   1.083       .  S
C1563      C1564   1.401       .  A
C1563      H1569   1.083       .  S
C1564      C1565   1.408   1_655  A
C1565      H1570   1.083       .  S
C1566      C1567   1.401       .  A
C1566      H1571   1.083       .  S
C1567      C1568   1.408       .  A
C1568      H1572   1.083       .  S
C1573      C1574   1.406       .  A
C1573      C1578   1.396       .  A
C1573      H1579   1.083       .  S
C1574      C1575   1.399       .  A
C1575      C1576   1.394       .  A
C1575      H1580   1.083       .  S
C1576      C1577   1.407       .  A
C1576      H1581   1.083       .  S
C1577      C1578   1.400       .  A
C1578      H1582   1.083       .  S
C1583      C1584   1.402       .  A
C1583      C1588   1.401       .  A
C1583      H1589   1.083       .  S
C1584      C1585   1.412       .  A
C1585      C1586   1.403       .  A
C1585      H1590   1.083       .  S
C1586      C1587   1.401       .  A
C1586      H1591   1.083       .  S
C1587      C1588   1.409       .  A
C1588      H1592   1.083       .  S
C1593      C1594   1.401       .  A
C1593      C1598   1.401       .  A
C1593      H1599   1.083       .  S
C1594      C1595   1.410       .  A
C1595      C1596   1.402       .  A
C1595      H1600   1.083       .  S
C1596      C1597   1.402       .  A
C1596      H1601   1.083       .  S
C1597      C1598   1.410       .  A
C1598      H1602   1.083       .  S
C1603      C1604   1.400       .  A
C1603      H1609   1.083       .  S
C1604      C1605   1.406   1_655  A
C1605      H1610   1.083       .  S
C1606      C1607   1.399       .  A
C1606      H1611   1.083       .  S
C1607      C1608   1.406       .  A
C1608      H1612   1.083       .  S
C1613      C1614   1.401       .  A
C1613      C1618   1.397       .  A
C1613      H1619   1.083       .  S
C1614      C1615   1.408       .  A
C1615      C1616   1.398       .  A
C1615      H1620   1.083       .  S
C1616      C1617   1.401       .  A
C1616      H1621   1.083       .  S
C1617      C1618   1.407       .  A
C1618      H1622   1.083       .  S
C1623      C1624   1.401       .  A
C1623      C1628   1.401   1_554  A
C1623      H1629   1.083       .  S
C1624      C1625   1.403       .  A
C1625      C1626   1.398   1_554  A
C1625      H1630   1.084       .  S
C1626      C1627   1.401       .  A
C1626      H1631   1.084       .  S
C1627      C1628   1.404       .  A
C1628      H1632   1.084       .  S
