geometry optimzed in LAMMPS
_audit_creation_date              2020-12-01 
_audit_creation_method            'lammps2cif' 
_symmetry_space_group_name_H-M    'P1' 
_symmetry_Int_Tables_number       1 
_symmetry_cell_setting            triclinic 
loop_ 
_symmetry_equiv_pos_as_xyz 
  x,y,z 
_cell_length_a                    35.58613118 
_cell_length_b                    35.568479253055514 
_cell_length_c                    42.40009114337717 
_cell_angle_alpha                 90.09193029725968 
_cell_angle_beta                  90.18851708966777 
_cell_angle_gamma                 119.90809999194616 
loop_ 
_atom_site_label 
_atom_site_type_symbol 
_atom_site_fract_x 
_atom_site_fract_y 
_atom_site_fract_z 
_atom_site_charge 
O1          O  0.78012193  0.67811607  0.31349036    -0.72200
O2          O  0.89905560  0.73579559  0.33639206    -0.72500
O3          O  0.85433234  0.70659353  0.28196063    -0.72300
O4          O  0.82482737  0.70715880  0.36794673    -0.72300
O5          O  0.82118888  0.64499444  0.37422710    -0.72300
O6          O  0.85102260  0.64455315  0.28873953    -0.72300
O7          O  0.89564277  0.67380041  0.34313923    -0.72300
O8          O  0.77684266  0.61602770  0.31987426    -0.72400
V9          V  0.83956355  0.70576072  0.32504274     1.35200
V10         V  0.83627254  0.64608217  0.33139590     1.35200
C11         C  0.75830118  0.63720380  0.31238864     0.77000
C12         C  0.91758203  0.71476413  0.34418520     0.77000
C13         C  0.85636678  0.67478897  0.27049013     0.76900
C14         C  0.81859891  0.67633036  0.38596185     0.76900
O15         O  0.22467740  0.90325602  0.43249949    -0.72200
O16         O  0.10746974  0.83966659  0.40546618    -0.72500
O17         O  0.14865849  0.85486537  0.46143940    -0.72300
O18         O  0.18277864  0.88746471  0.37641935    -0.72300
O19         O  0.18901678  0.83028409  0.37024422    -0.72300
O20         O  0.15502373  0.79773641  0.45500148    -0.72300
O21         O  0.11345568  0.78231137  0.39914019    -0.72300
O22         O  0.23073332  0.84594854  0.42619775    -0.72400
V23         V  0.16608568  0.87025117  0.41888164     1.35200
V24         V  0.17200173  0.81522881  0.41276406     1.35200
C25         C  0.24736891  0.88509722  0.43479678     0.77000
C26         C  0.09073528  0.80043256  0.39706405     0.77000
C27         C  0.14658055  0.82103717  0.47283403     0.76900
C28         C  0.18980844  0.86329372  0.35842374     0.76900
O29         O  0.44560765  0.02043452  0.48465627    -0.72200
O30         O  0.56356788  0.07647049  0.01046481    -0.72500
O31         O  0.52109861  0.04800666  0.45484828    -0.72300
O32         O  0.48847403  0.04871834  0.04031470    -0.72300
O33         O  0.48362254  0.98595878  0.04704209    -0.72300
O34         O  0.51569043  0.98512403  0.46220869    -0.72300
O35         O  0.55879463  0.01372069  0.01724412    -0.72300
O36         O  0.44074781  0.95789795  0.49199828    -0.72400
V37         V  0.50456294  0.04721720  0.49767656     1.35200
V38         V  0.49981064  0.98693545  0.50451266     1.35200
C39         C  0.42317472  0.97955971  0.48330145     0.77000
C40         C  0.58092361  0.05460971  0.01900356     0.77000
C41         C  0.52253714  0.01565409  0.44375121     0.76900
C42         C  0.48138261  0.01760096  0.05841745     0.76900
O43         O  0.22695107  0.39516255  0.18218780    -0.72200
O44         O  0.10894626  0.34124580  0.15760034    -0.72500
O45         O  0.15240181  0.36674638  0.21272607    -0.72300
O46         O  0.18383906  0.36977259  0.12713440    -0.72300
O47         O  0.17995283  0.30727604  0.13251401    -0.72300
O48         O  0.14575973  0.30297577  0.21765343    -0.72300
O49         O  0.10420958  0.27814145  0.16156371    -0.72300
O50         O  0.22156369  0.33213633  0.18833024    -0.72400
V51         V  0.16788893  0.36698258  0.17001877     1.35200
V52         V  0.16289339  0.30630268  0.17494886     1.35200
C53         C  0.24429475  0.37295869  0.18993980     0.77000
C54         C  0.08682852  0.30055184  0.15454224     0.77000
C55         C  0.14522283  0.33504923  0.23006453     0.76900
C56         C  0.18694920  0.33892535  0.11511150     0.76900
O57         O  0.77833184  0.11657416  0.06781823    -0.72200
O58         O  0.89625248  0.17626491  0.09339253    -0.72500
O59         O  0.82093346  0.13122225  0.12312430    -0.72300
O60         O  0.85402132  0.16132604  0.03821358    -0.72300
O61         O  0.85003400  0.21983307  0.04382236    -0.72300
O62         O  0.81889245  0.19062793  0.12977411    -0.72300
O63         O  0.89347555  0.23548631  0.09886346    -0.72300
O64         O  0.77508940  0.17529912  0.07470212    -0.72400
V65         V  0.83726149  0.14748462  0.08074944     1.35200
V66         V  0.83435520  0.20417642  0.08667874     1.35200
C67         C  0.75680141  0.13598818  0.06619689     0.77000
C68         C  0.91489753  0.21598088  0.10076474     0.77000
C69         C  0.81622171  0.15658467  0.14136724     0.76900
C70         C  0.85682150  0.19510982  0.02622157     0.76900
O71         O  0.44093667  0.50405753  0.24160401    -0.72200
O72         O  0.55965656  0.56470673  0.26497722    -0.72500
O73         O  0.51540966  0.54768220  0.21046843    -0.72300
O74         O  0.48490578  0.52127547  0.29606298    -0.72300
O75         O  0.48771584  0.46197740  0.29122852    -0.72300
O76         O  0.51806849  0.48831703  0.20530782    -0.72300
O77         O  0.56227998  0.50543102  0.25988323    -0.72300
O78         O  0.44341129  0.44471770  0.23670323    -0.72400
V79         V  0.50029445  0.53327700  0.25318852     1.35200
V80         V  0.50284744  0.47624572  0.24835431     1.35200
C81         C  0.42181003  0.46409991  0.23501058     0.77000
C82         C  0.58126506  0.54532885  0.26668655     0.77000
C83         C  0.52123960  0.52217516  0.19314415     0.76900
C84         C  0.48148401  0.48744484  0.30836383     0.76900
O85         O  0.22630032  0.33692035  0.40688743    -0.72200
O86         O  0.16348838  0.39173076  0.43318795    -0.72500
O87         O  0.21014913  0.36254350  0.46290253    -0.72300
O88         O  0.17972089  0.36613919  0.37770585    -0.72300
O89         O  0.12227768  0.30298529  0.38269805    -0.72300
O90         O  0.15193914  0.29991392  0.46822565    -0.72300
O91         O  0.10548576  0.32898734  0.43802463    -0.72300
O92         O  0.16864759  0.27394033  0.41282873    -0.72400
V93         V  0.19382142  0.36311085  0.42032635     1.35200
V94         V  0.13821796  0.30266034  0.42539624     1.35200
C95         C  0.20784419  0.29608605  0.40454862     0.77000
C96         C  0.12389523  0.36983893  0.44044094     0.77000
C97         C  0.18557707  0.33103769  0.48036221     0.76900
C98         C  0.14658748  0.33461528  0.36531408     0.76900
O99         O  0.36536138  0.19029994  0.37346395    -0.72200
O100        O  0.36376805  0.21897968  0.28746905    -0.72500
O101        O  0.33471179  0.23449468  0.34191986    -0.72300
O102        O  0.39425617  0.17484622  0.31932710    -0.72300
O103        O  0.33286137  0.11612345  0.31132740    -0.72300
O104        O  0.27327517  0.17437480  0.33735269    -0.72300
O105        O  0.30123877  0.16077982  0.28165766    -0.72300
O106        O  0.30480756  0.12995945  0.36656369    -0.72400
V107        V  0.36334494  0.20355949  0.33038564     1.35200
V108        V  0.30423443  0.14649792  0.32423948     1.35200
C109        C  0.33515168  0.15541230  0.38470819     0.77000
C110        C  0.33254403  0.19426960  0.26968017     0.77000
C111        C  0.29394342  0.21409858  0.34475398     0.76900
C112        C  0.37378600  0.13531933  0.31122998     0.76900
O113        O  0.01769203  0.50618148  0.04401710    -0.72200
O114        O  0.01994594  0.53793754  0.45850936    -0.72500
O115        O  0.99003671  0.55297383  0.01253457    -0.72300
O116        O  0.04721360  0.49119280  0.49018078    -0.72300
O117        O  0.98527943  0.43329997  0.48190634    -0.72300
O118        O  0.92770798  0.49484305  0.00539309    -0.72300
O119        O  0.95719358  0.48042724  0.45080268    -0.72300
O120        O  0.95551925  0.44785927  0.03651029    -0.72400
V121        V  0.01743276  0.52090125  0.00117761     1.35200
V122        V  0.95758642  0.46515073  0.99376074     1.35200
C123        C  0.98626023  0.47195722  0.05495122     0.77000
C124        C  0.98924941  0.51433354  0.43994271     0.77000
C125        C  0.94912514  0.53429932  0.01346902     0.76900
C126        C  0.02621768  0.45181897  0.48181305     0.76900
O127        O  0.67435943  0.78293237  0.15967548    -0.72200
O128        O  0.61841112  0.84552026  0.18265666    -0.72500
O129        O  0.64777228  0.83042689  0.12858820    -0.72300
O130        O  0.64527636  0.79827770  0.21419385    -0.72300
O131        O  0.70808420  0.85577300  0.22184583    -0.72300
O132        O  0.71049187  0.88794452  0.13624989    -0.72300
O133        O  0.68062050  0.90328678  0.19048378    -0.72300
O134        O  0.73713530  0.84034025  0.16743071    -0.72400
V135        V  0.64771314  0.81541305  0.17148802     1.35200
V136        V  0.70788134  0.87076297  0.17894806     1.35200
C137        C  0.71520037  0.80119990  0.15860378     0.77000
C138        C  0.63960140  0.88498098  0.19048680     0.77000
C139        C  0.67990772  0.86413509  0.11764790     0.76900
C140        C  0.67589292  0.82212576  0.23276567     0.76900
O141        O  0.77507172  0.67386915  0.09421965    -0.72200
O142        O  0.83198153  0.61302776  0.06852072    -0.72500
O143        O  0.81861693  0.64148548  0.12401910    -0.72300
O144        O  0.78883577  0.64564158  0.03867125    -0.72300
O145        O  0.84724303  0.70823177  0.03345188    -0.72300
O146        O  0.87974919  0.70098717  0.11747339    -0.72300
O147        O  0.89099956  0.67399067  0.06061637    -0.72300
O148        O  0.83574849  0.73484985  0.09075966    -0.72400
V149        V  0.80474446  0.64469800  0.08124402     1.35200
V150        V  0.86227096  0.70337955  0.07563430     1.35200
C151        C  0.79608524  0.71448273  0.09813744     0.77000
C152        C  0.87081489  0.63303463  0.05912623     0.77000
C153        C  0.85384837  0.67120303  0.13554226     0.76900
C154        C  0.81386465  0.67687699  0.02121240     0.76900
O155        O  0.51234348  0.95530469  0.23951620    -0.72200
O156        O  0.45093970  0.01185231  0.26546231    -0.72500
O157        O  0.46765587  0.98725788  0.20964954    -0.72300
O158        O  0.49533427  0.98024928  0.29533463    -0.72300
O159        O  0.55384168  0.04268214  0.29125039    -0.72300
O160        O  0.52672980  0.04930481  0.20553423    -0.72300
O161        O  0.50961908  0.07399593  0.26097366    -0.72300
O162        O  0.57131731  0.01758414  0.23580277    -0.72400
V163        V  0.48273794  0.98477392  0.25237241     1.35200
V164        V  0.53927063  0.04461827  0.24842061     1.35200
C165        C  0.55236984  0.97677995  0.23322856     0.77000
C166        C  0.46997357  0.05271103  0.26811303     0.77000
C167        C  0.49243961  0.01967122  0.19293278     0.76900
C168        C  0.52838235  0.01123376  0.30834932     0.76900
O169        O  0.38743176  0.23098791  0.06692604    -0.72200
O170        O  0.33496304  0.11354575  0.09259509    -0.72500
O171        O  0.35884385  0.15565503  0.03677062    -0.72300
O172        O  0.36326078  0.18923824  0.12250816    -0.72300
O173        O  0.29984084  0.18323447  0.11718915    -0.72300
O174        O  0.29543443  0.14970987  0.03207159    -0.72300
O175        O  0.27150452  0.10739977  0.08763393    -0.72300
O176        O  0.32414690  0.22539850  0.06186979    -0.72400
V177        V  0.35990960  0.17222582  0.07959401     1.35200
V178        V  0.29894342  0.16648636  0.07477033     1.35200
C179        C  0.36492012  0.24817481  0.05966419     0.77000
C180        C  0.29433605  0.09062956  0.09538843     0.77000
C181        C  0.32669427  0.14809213  0.01952977     0.76900
C182        C  0.33159360  0.19074432  0.13465516     0.76900
O183        O  0.56143800  0.56241598  0.48729656    -0.72200
O184        O  0.49731571  0.44401767  0.01011435    -0.72500
O185        O  0.51642540  0.48782313  0.45574950    -0.72300
O186        O  0.54231815  0.51853093  0.04172785    -0.72300
O187        O  0.48354467  0.52227695  0.04605032    -0.72300
O188        O  0.45881014  0.49373240  0.45959682    -0.72300
O189        O  0.43879834  0.44826223  0.01345524    -0.72300
O190        O  0.50363037  0.56760816  0.49221626    -0.72400
V191        V  0.52825018  0.50332824  0.99881310     1.35200
V192        V  0.47232521  0.50796260  0.00276661     1.35200
C193        C  0.54343964  0.58529740  0.48554700     0.77000
C194        C  0.45715446  0.42570176  0.01556235     0.77000
C195        C  0.48357428  0.48608609  0.44286680     0.76900
C196        C  0.51698505  0.52500808  0.05870136     0.76900
O197        O  0.16437936  0.77631988  0.17540741    -0.72200
O198        O  0.22659099  0.89455258  0.14973667    -0.72500
O199        O  0.20997962  0.85234289  0.20543981    -0.72300
O200        O  0.18132074  0.81844985  0.12005078    -0.72300
O201        O  0.12264023  0.82223662  0.12464891    -0.72300
O202        O  0.15168138  0.85673317  0.21037859    -0.72300
O203        O  0.16780885  0.89824487  0.15432620    -0.72300
O204        O  0.10602143  0.78057803  0.18035975    -0.72400
V205        V  0.19444770  0.83551930  0.16280671     1.35200
V206        V  0.13820551  0.83943782  0.16740781     1.35200
C207        C  0.12454569  0.75817781  0.18226824     0.77000
C208        C  0.20720197  0.91600311  0.14641472     0.77000
C209        C  0.18514398  0.85898349  0.22283732     0.76900
C210        C  0.14757617  0.81518778  0.10753721     0.76900
O211        O  0.99662234  0.44526947  0.26122851    -0.72200
O212        O  0.05244823  0.56265255  0.23523486    -0.72500
O213        O  0.02920120  0.52115914  0.29123305    -0.72300
O214        O  0.01918853  0.48598252  0.20553878    -0.72300
O215        O  0.95709876  0.48330767  0.20235870    -0.72300
O216        O  0.96684898  0.51785922  0.28815522    -0.72300
O217        O  0.99032453  0.56006885  0.23237096    -0.72300
O218        O  0.93426304  0.44192467  0.25797719    -0.72400
V219        V  0.02321101  0.50385676  0.24824816     1.35200
V220        V  0.96336262  0.50095181  0.24523746     1.35200
C221        C  0.95593519  0.42352042  0.26431107     0.77000
C222        C  0.03105245  0.58139399  0.22902474     0.77000
C223        C  0.99904971  0.52395890  0.30472381     0.76900
C224        C  0.98623443  0.47838200  0.18929626     0.76900
O225        O  0.89802496  0.22960429  0.31833850    -0.72200
O226        O  0.84041555  0.11162044  0.34306949    -0.72500
O227        O  0.85342151  0.15436290  0.28791708    -0.72300
O228        O  0.88476856  0.18709806  0.37353402    -0.72300
O229        O  0.82605835  0.19056156  0.37974911    -0.72300
O230        O  0.79347909  0.15514938  0.29513586    -0.72300
O231        O  0.78145437  0.11400999  0.35083124    -0.72300
O232        O  0.83833842  0.23125051  0.32414906    -0.72400
V233        V  0.86801734  0.17066213  0.33083988     1.35200
V234        V  0.81096351  0.17262629  0.33736031     1.35200
C235        C  0.87778954  0.25026291  0.31618480     0.77000
C236        C  0.80138776  0.09294114  0.35200113     0.77000
C237        C  0.81892872  0.15108306  0.27663982     0.76900
C238        C  0.86013617  0.19351683  0.39141093     0.76900
O239        O  0.68480179  0.78442167  0.44082399    -0.72200
O240        O  0.74381982  0.90213462  0.41413591    -0.72500
O241        O  0.71886519  0.86132559  0.47034654    -0.72300
O242        O  0.70992822  0.82542663  0.38474560    -0.72300
O243        O  0.64837148  0.82363115  0.38081502    -0.72300
O244        O  0.65753638  0.86005664  0.46582775    -0.72300
O245        O  0.68221979  0.90018250  0.40986039    -0.72300
O246        O  0.62368982  0.78348437  0.43666423    -0.72400
V247        V  0.71324119  0.84330741  0.42748181     1.35200
V248        V  0.65419801  0.84187036  0.42339888     1.35200
C249        C  0.64401072  0.76389527  0.44360896     0.77000
C250        C  0.72292389  0.92099096  0.40669685     0.77000
C251        C  0.68926932  0.86606262  0.48287506     0.76900
C252        C  0.67806231  0.81947407  0.36786486     0.76900
C253        C  0.71781008  0.98088621  0.38101431    -0.09600
C254        C  0.74436676  0.96548905  0.39337174     0.06600
C255        C  0.78987626  0.99231762  0.39130058    -0.03400
C256        C  0.80737217  0.03311742  0.37714261    -0.07800
C257        C  0.78068839  0.04842504  0.36496739     0.05700
C258        C  0.73529297  0.02160328  0.36692886    -0.02900
Br259      Br  0.69475400  0.03706328  0.34977927    -0.02600
H260        H  0.68284599  0.96086874  0.38184580     0.09600
H261        H  0.84231655  0.05340316  0.37622528     0.07600
Br262      Br  0.83059080  0.97664538  0.40772475    -0.03000
C263        C  0.96160309  0.36391020  0.29009334    -0.09600
C264        C  0.93510800  0.37838910  0.27624931     0.06600
C265        C  0.88980487  0.34987153  0.27531226    -0.03400
C266        C  0.87220762  0.30886438  0.28902252    -0.07800
C267        C  0.89867467  0.29471105  0.30322686     0.05700
C268        C  0.94403462  0.32263920  0.30334875    -0.02900
Br269      Br  0.98412772  0.30782264  0.32223642    -0.02600
H270        H  0.99644525  0.38509956  0.29112841     0.09600
H271        H  0.83739830  0.28746480  0.28793687     0.07600
Br272      Br  0.84975458  0.36320435  0.25460924    -0.03000
C273        C  0.09122088  0.64020858  0.19893021    -0.09600
C274        C  0.05360546  0.62653864  0.21699019     0.06600
C275        C  0.03880148  0.65610305  0.22262998    -0.03400
C276        C  0.06210489  0.69843207  0.21078262    -0.07800
C277        C  0.10018482  0.71233981  0.19308034     0.05700
C278        C  0.11418068  0.68224120  0.18673532    -0.02900
Br279      Br  0.16270886  0.69496088  0.16015702    -0.02600
H280        H  0.10252142  0.61768380  0.19370052     0.09600
H281        H  0.05070024  0.72086519  0.21600552     0.07600
Br282      Br  0.98864359  0.64180535  0.24777587    -0.03000
C283        C  0.61415166  0.65143010  0.47442835    -0.09600
C284        C  0.56865818  0.63133727  0.47560313     0.06600
C285        C  0.54875798  0.65545263  0.46633107    -0.03400
C286        C  0.57423527  0.69817617  0.45622944    -0.07800
C287        C  0.61969241  0.71828984  0.45479300     0.05700
C288        C  0.63971272  0.69427822  0.46421360    -0.02900
Br289      Br  0.70134963  0.71691246  0.46397271    -0.02600
H290        H  0.63019734  0.63367264  0.48148588     0.09600
H291        H  0.55792805  0.71566226  0.44914479     0.07600
Br292      Br  0.48708799  0.63260559  0.46533725    -0.03000
C293        C  0.27386045  0.98803302  0.13909255    -0.09600
C294        C  0.22960739  0.96030053  0.13287080     0.06600
C295        C  0.20769637  0.97515041  0.11312854    -0.03400
C296        C  0.22961016  0.01730245  0.10108436    -0.07800
C297        C  0.27364234  0.04556689  0.10779863     0.05700
C298        C  0.29593357  0.03031809  0.12698611    -0.02900
Br299      Br  0.35564147  0.06566579  0.13931804    -0.02600
H300        H  0.29121804  0.97706828  0.15403075     0.09600
H301        H  0.21202206  0.02787317  0.08604138     0.07600
Br302      Br  0.14862930  0.93872084  0.09975114    -0.03000
C303        C  0.39248360  0.36384717  0.04042131    -0.09600
C304        C  0.43254037  0.37946360  0.02506329     0.06600
C305        C  0.44874773  0.35080168  0.02025630    -0.03400
C306        C  0.42590829  0.30852309  0.03175955    -0.07800
C307        C  0.38649773  0.29322915  0.04774736     0.05700
C308        C  0.36942215  0.32122754  0.05170791    -0.02900
Br309      Br  0.31649211  0.30452119  0.07398385    -0.02600
H310        H  0.37942739  0.38520056  0.04442394     0.09600
H311        H  0.43900188  0.28717569  0.02782396     0.07600
Br312      Br  0.50085289  0.36583254  0.99726415    -0.03000
C313        C  0.71110689  0.81912375  0.28257830    -0.09600
C314        C  0.67363352  0.81257293  0.26674937     0.06600
C315        C  0.63611872  0.80188985  0.28430292    -0.03400
C316        C  0.63760191  0.80102878  0.31718889    -0.07800
C317        C  0.67604480  0.81086278  0.33338649     0.05700
C318        C  0.71255616  0.81778693  0.31555972    -0.02900
Br319      Br  0.76631687  0.82821541  0.33403148    -0.02600
H320        H  0.73992862  0.82671180  0.26920794     0.09600
H321        H  0.60895866  0.79498709  0.33016051     0.07600
Br322      Br  0.58356730  0.79384431  0.26517667    -0.03000
C323        C  0.72375271  0.89090591  0.06888482    -0.09600
C324        C  0.68309526  0.87337479  0.08351213     0.06600
C325        C  0.64597223  0.86053769  0.06466134    -0.03400
C326        C  0.64941226  0.86133517  0.03184432    -0.07800
C327        C  0.68945278  0.87475514  0.01709523     0.05700
C328        C  0.72726436  0.89178026  0.03596930    -0.02900
Br329      Br  0.78447114  0.91657027  0.01854335    -0.02600
H330        H  0.75277698  0.90190859  0.08307299     0.09600
H331        H  0.62007513  0.84929648  0.01787995     0.07600
Br332      Br  0.58969319  0.84156381  0.08229477    -0.03000
C333        C  0.71379539  0.74748289  0.12083456    -0.09600
C334        C  0.73608023  0.77805235  0.14482528     0.06600
C335        C  0.77827556  0.78743064  0.15323552    -0.03400
C336        C  0.79769082  0.76727924  0.13701464    -0.07800
C337        C  0.77544471  0.73709785  0.11284918     0.05700
C338        C  0.73298129  0.72699578  0.10493668    -0.02900
Br339      Br  0.70063253  0.68753985  0.07138550    -0.02600
H340        H  0.68157107  0.74024065  0.11375757     0.09600
H341        H  0.82988244  0.77425579  0.14395347     0.07600
Br342      Br  0.80971764  0.82483803  0.18795158    -0.03000
C343        C  0.64074318  0.94882435  0.21587525    -0.09600
C344        C  0.61699608  0.90877520  0.20019043     0.06600
C345        C  0.57200752  0.89199027  0.19518071    -0.03400
C346        C  0.55205062  0.91467049  0.20638964    -0.07800
C347        C  0.57571142  0.95441843  0.22228487     0.05700
C348        C  0.62069835  0.97161611  0.22689521    -0.02900
Br349      Br  0.65641442  0.02455268  0.24966912    -0.02600
H350        H  0.67510229  0.96225229  0.22021772     0.09600
H351        H  0.51765441  0.90129581  0.20218294     0.07600
Br352      Br  0.53527974  0.83923922  0.17241226    -0.03000
C353        C  0.03278041  0.53958124  0.39120121    -0.09600
C354        C  0.99255508  0.52438361  0.40593704     0.06600
C355        C  0.95620747  0.51574922  0.38740974    -0.03400
C356        C  0.95982987  0.51882049  0.35452281    -0.07800
C357        C  0.99931468  0.53024944  0.33943501     0.05700
C358        C  0.03653046  0.54252464  0.35835358    -0.02900
Br359      Br  0.09343547  0.56278126  0.34141812    -0.02600
H360        H  0.06122075  0.54717002  0.40523814     0.09600
H361        H  0.93098813  0.51024565  0.34070136     0.07600
Br362      Br  0.90112256  0.50021082  0.40578551    -0.03000
C363        C  0.94516933  0.44786875  0.10498974    -0.09600
C364        C  0.98447591  0.46272990  0.08898547     0.06600
C365        C  0.02244489  0.47441638  0.10650795    -0.03400
C366        C  0.02170957  0.47657953  0.13938352    -0.07800
C367        C  0.98336676  0.46674503  0.15540146     0.05700
C368        C  0.94420222  0.44939330  0.13796452    -0.02900
Br369      Br  0.88841891  0.42732316  0.15736025    -0.02600
H370        H  0.91541569  0.43739867  0.09179151     0.09600
H371        H  0.05183647  0.48804762  0.15228233     0.07600
Br372      Br  0.07612930  0.48779629  0.08668267    -0.03000
C373        C  0.94901885  0.60355902  0.01963956    -0.09600
C374        C  0.92751997  0.55846860  0.02402160     0.06600
C375        C  0.88710638  0.53822877  0.03949583    -0.03400
C376        C  0.86958511  0.56325732  0.05053880    -0.07800
C377        C  0.89134131  0.60855672  0.04660081     0.05700
C378        C  0.93138581  0.62861353  0.03042190    -0.02900
Br379      Br  0.96372619  0.68952524  0.02101546    -0.02600
H380        H  0.97997637  0.61965476  0.50763210     0.09600
H381        H  0.83883915  0.54700451  0.06273668     0.07600
Br382      Br  0.85519190  0.47715625  0.04832066    -0.03000
C383        C  0.36739037  0.15685198  0.47008379    -0.09600
C384        C  0.32712831  0.14134219  0.48506401     0.06600
C385        C  0.28923141  0.12490982  0.46624125    -0.03400
C386        C  0.29266596  0.12728223  0.43343821    -0.07800
C387        C  0.33321877  0.14624924  0.41870006     0.05700
C388        C  0.37072802  0.15967657  0.43721904    -0.02900
Br389      Br  0.42723170  0.18224389  0.41900759    -0.02600
H390        H  0.39682068  0.16905055  0.48396028     0.09600
H391        H  0.26349090  0.11637950  0.41942890     0.07600
Br392      Br  0.23170312  0.09988384  0.48322849    -0.03000
C393        C  0.29326550  0.18015200  0.21895466    -0.09600
C394        C  0.33282164  0.20211184  0.23535416     0.06600
C395        C  0.37152311  0.22577680  0.21793535    -0.03400
C396        C  0.37013346  0.22349135  0.18495894    -0.07800
C397        C  0.33081075  0.19866019  0.16876696     0.05700
C398        C  0.29183661  0.17818459  0.18609760    -0.02900
Br399      Br  0.23575821  0.14250373  0.16715594    -0.02600
H400        H  0.26316915  0.16234993  0.23181282     0.09600
H401        H  0.40021448  0.23996426  0.17192234     0.07600
Br402      Br  0.42780308  0.25889542  0.23707613    -0.03000
C403        C  0.44208966  0.13847222  0.29466556    -0.09600
C404        C  0.39765532  0.11300456  0.30122141     0.06600
C405        C  0.37771105  0.06748063  0.29768055    -0.03400
C406        C  0.40192209  0.04897826  0.28675109    -0.07800
C407        C  0.44623036  0.07456983  0.27957770     0.05700
C408        C  0.46645856  0.11998679  0.28421961    -0.02900
Br409      Br  0.52713054  0.15961877  0.27751046    -0.02600
H410        H  0.45826009  0.17336873  0.29750904     0.09600
H411        H  0.38579055  0.01406136  0.28408699     0.07600
Br412      Br  0.31830742  0.02791961  0.30843108    -0.03000
C413        C  0.09546441  0.45250858  0.47284351    -0.09600
C414        C  0.04987058  0.42914068  0.47181589     0.06600
C415        C  0.02903361  0.38572719  0.46080999    -0.03400
C416        C  0.05387734  0.36740527  0.45081400    -0.07800
C417        C  0.09944364  0.39111034  0.45145550     0.05700
C418        C  0.12020651  0.43415162  0.46303069    -0.02900
Br419      Br  0.18201288  0.46977844  0.46770418    -0.02600
H420        H  0.11239675  0.48561145  0.48148963     0.09600
H421        H  0.03723618  0.33426503  0.44222579     0.07600
Br422      Br  0.96714744  0.34893420  0.45845113    -0.03000
C423        C  0.25980867  0.29637801  0.36556862    -0.09600
C424        C  0.23071454  0.27515065  0.39038385     0.06600
C425        C  0.22216754  0.23347511  0.39943427    -0.03400
C426        C  0.24224623  0.21381296  0.38352876    -0.07800
C427        C  0.27128091  0.23508741  0.35881003     0.05700
C428        C  0.27996516  0.27668121  0.34974352    -0.02900
Br429      Br  0.31663262  0.30653202  0.31460652    -0.02600
H430        H  0.26602716  0.32799316  0.35784461     0.09600
H431        H  0.23609920  0.18216077  0.39113143     0.07600
Br432      Br  0.18579501  0.20292144  0.43453176    -0.03000
C433        C  0.49219456  0.45802200  0.35810554    -0.09600
C434        C  0.47380483  0.47969879  0.34240613     0.06600
C435        C  0.45286539  0.49746748  0.36010499    -0.03400
C436        C  0.45402502  0.49657429  0.39296352    -0.07800
C437        C  0.47599065  0.47846700  0.40869823     0.05700
C438        C  0.49359978  0.45735280  0.39096647    -0.02900
Br439      Br  0.52047241  0.42748559  0.40982130    -0.02600
H440        H  0.50770841  0.44350359  0.34481899     0.09600
H441        H  0.43953396  0.51215465  0.40620686     0.07600
Br442      Br  0.42252914  0.52376358  0.34107625    -0.03000
C443        C  0.50770196  0.55045219  0.14397514    -0.09600
C444        C  0.52789331  0.53006453  0.15907161     0.06600
C445        C  0.54997170  0.51411090  0.14085341    -0.03400
C446        C  0.54834752  0.51548593  0.10803162    -0.07800
C447        C  0.52471996  0.53226233  0.09287506     0.05700
C448        C  0.50582483  0.55161883  0.11116485    -0.02900
Br449      Br  0.47669784  0.57981052  0.09318886    -0.02600
H450        H  0.49128396  0.56361268  0.15770593     0.09600
H451        H  0.56388468  0.50134201  0.09436855     0.07600
Br452      Br  0.58272451  0.49003392  0.15921144    -0.03000
C453        C  0.88503870  0.18218960  0.47644809    -0.09600
C454        C  0.86595827  0.20335913  0.49206527     0.06600
C455        C  0.85138772  0.22699767  0.47399734    -0.03400
C456        C  0.85297015  0.22599295  0.44108191    -0.07800
C457        C  0.86880488  0.20187120  0.42551801     0.05700
C458        C  0.88645720  0.18107348  0.44356483    -0.02900
Br459      Br  0.90771354  0.14580725  0.42527883    -0.02600
H460        H  0.89684508  0.16424689  0.48986379     0.09600
H461        H  0.83957439  0.24237284  0.42749977     0.07600
Br462      Br  0.82461318  0.25741524  0.49198795    -0.03000
C463        C  0.79143581  0.16786210  0.19334007    -0.09600
C464        C  0.81027105  0.14819087  0.17568509     0.06600
C465        C  0.82737024  0.12511380  0.19176291    -0.03400
C466        C  0.82728210  0.12417935  0.22471088    -0.07800
C467        C  0.81050772  0.14577959  0.24233385     0.05700
C468        C  0.79139562  0.16692821  0.22629344    -0.02900
Br469      Br  0.76936875  0.19973125  0.24747007    -0.02600
H470        H  0.77827470  0.18575120  0.18147078     0.09600
H471        H  0.84222163  0.10802283  0.23668479     0.07600
Br472      Br  0.85583525  0.09813756  0.17096664    -0.03000
C473        C  0.11343634  0.29744628  0.28050317    -0.09600
C474        C  0.13924324  0.33637399  0.26436231     0.06600
C475        C  0.16311108  0.37508155  0.28181370    -0.03400
C476        C  0.16224251  0.37384369  0.31466984    -0.07800
C477        C  0.13863516  0.33456699  0.33098969     0.05700
C478        C  0.11277605  0.29610591  0.31349152    -0.02900
Br479      Br  0.07872344  0.23995824  0.33235160    -0.02600
H480        H  0.09496294  0.26751186  0.26735337     0.09600
H481        H  0.18221592  0.40372725  0.32751619     0.07600
Br482      Br  0.20232152  0.42991548  0.26283430    -0.03000
C483        C  0.17744230  0.29756450  0.06593641    -0.09600
C484        C  0.19502245  0.33804897  0.08104688     0.06600
C485        C  0.21575688  0.37609583  0.06269658    -0.03400
C486        C  0.21514231  0.37290439  0.02981425    -0.07800
C487        C  0.19386340  0.33232480  0.01464271     0.05700
C488        C  0.17655186  0.29437233  0.03308980    -0.02900
Br489      Br  0.15063925  0.23717014  0.01514402    -0.02600
H490        H  0.16213498  0.26798493  0.07963500     0.09600
H491        H  0.22930673  0.40244477  0.01606418     0.07600
Br492      Br  0.24504371  0.43330274  0.08082405    -0.03000
C493        C  0.03051330  0.24511612  0.12001130    -0.09600
C494        C  0.04271631  0.27963676  0.14122872     0.06600
C495        C  0.01338877  0.29429526  0.14789140    -0.03400
C496        C  0.97233995  0.27371369  0.13380793    -0.07800
C497        C  0.95981117  0.23865749  0.11291969     0.05700
C498        C  0.98975019  0.22491438  0.10559070    -0.02900
Br499      Br  0.97843016  0.18080734  0.07475485    -0.02600
H500        H  0.05329182  0.23443881  0.11398139     0.09600
H501        H  0.94970494  0.28453971  0.13989186     0.07600
Br502      Br  0.02632167  0.34025252  0.17741457    -0.03000
C503        C  0.35844114  0.39849126  0.21221588    -0.09600
C504        C  0.37575492  0.44062327  0.22474779     0.06600
C505        C  0.34888984  0.45941673  0.22616317    -0.03400
C506        C  0.30658788  0.43660048  0.21450962    -0.07800
C507        C  0.28952719  0.39484124  0.20162896     0.05700
C508        C  0.31588055  0.37554405  0.20075580    -0.02900
Br509      Br  0.29713944  0.31918748  0.18287483    -0.02600
H510        H  0.37833067  0.38337804  0.21076558     0.09600
H511        H  0.28663467  0.45165599  0.21591480     0.07600
Br512      Br  0.36632235  0.51541825  0.24422421    -0.03000
C513        C  0.50897939  0.97325584  0.35995268    -0.09600
C514        C  0.53468973  0.01166187  0.34308253     0.06600
C515        C  0.56099402  0.05035665  0.36030244    -0.03400
C516        C  0.55781106  0.05055458  0.39321385    -0.07800
C517        C  0.52985158  0.01271858  0.40973347     0.05700
C518        C  0.50648511  0.97337007  0.39285047    -0.02900
Br519      Br  0.46671064  0.91940312  0.41264432    -0.02600
H520        H  0.48894621  0.94310768  0.34741955     0.09600
H521        H  0.57653333  0.08080449  0.40595377     0.07600
Br522      Br  0.60000195  0.10496398  0.34099133    -0.03000
C523        C  0.45487208  0.98255419  0.14323692    -0.09600
C524        C  0.48267869  0.02151818  0.15906774     0.06600
C525        C  0.50266236  0.06048995  0.14151996    -0.03400
C526        C  0.49843867  0.05903042  0.10861706    -0.07800
C527        C  0.47468521  0.01935256  0.09265835     0.05700
C528        C  0.45069743  0.98121979  0.11039885    -0.02900
Br529      Br  0.41205320  0.92631856  0.09101387    -0.02600
H530        H  0.43785466  0.95246244  0.15623149     0.09600
H531        H  0.51602341  0.08882330  0.09536823     0.07600
Br532      Br  0.53651094  0.11671811  0.16061463    -0.03000
C533        C  0.65224873  0.05866313  0.02297347    -0.09600
C534        C  0.62579081  0.07598678  0.03104778     0.06600
C535        C  0.64236776  0.11247999  0.05114782    -0.03400
C536        C  0.68483869  0.13101558  0.06251450    -0.07800
C537        C  0.71160583  0.11394830  0.05429800     0.05700
C538        C  0.69489791  0.07741304  0.03404296    -0.02900
Br539      Br  0.72871640  0.05278871  0.01868927    -0.02600
H540        H  0.63991008  0.03078483  0.00738371     0.09600
H541        H  0.69685631  0.15882263  0.07814380     0.07600
Br542      Br  0.60803179  0.13694199  0.06560765    -0.03000
C543        C  0.17449211  0.88754545  0.27362664    -0.09600
C544        C  0.19353890  0.86700711  0.25719245     0.06600
C545        C  0.21633027  0.85069004  0.27455177    -0.03400
C546        C  0.21736714  0.85296073  0.30747711    -0.07800
C547        C  0.19594491  0.87095367  0.32398708     0.05700
C548        C  0.17547056  0.88970843  0.30662622    -0.02900
Br549      Br  0.14404587  0.91449448  0.32603333    -0.02600
H550        H  0.15707373  0.90044792  0.26077976     0.09600
H551        H  0.23326244  0.83845286  0.32035337     0.07600
Br552      Br  0.24266669  0.82031763  0.25569467    -0.03000
C553        C  0.15985429  0.79195886  0.02205367    -0.09600
C554        C  0.13834714  0.81084110  0.00675418     0.06600
C555        C  0.11330235  0.82348167  0.02483373    -0.03400
C556        C  0.11414450  0.82156601  0.05775988    -0.07800
C557        C  0.13952361  0.80702777  0.07323014     0.05700
C558        C  0.16057929  0.78979728  0.05492707    -0.02900
Br559      Br  0.19132557  0.76331249  0.07297630    -0.02600
H560        H  0.17826787  0.78080987  0.00842659     0.09600
H561        H  0.09651972  0.83366660  0.07131539     0.07600
Br562      Br  0.07720223  0.84327681  0.00594546    -0.03000
C563        C  0.31699541  0.95390351  0.44252423    -0.09600
C564        C  0.29200885  0.90904781  0.44758590     0.06600
C565        C  0.30985681  0.88828632  0.46547031    -0.03400
C566        C  0.35218869  0.91216227  0.47703867    -0.07800
C567        C  0.37773918  0.95693968  0.47151426     0.05700
C568        C  0.35947803  0.97793349  0.45408989    -0.02900
Br569      Br  0.39041659  0.03860791  0.44380361    -0.02600
H570        H  0.30363436  0.97033592  0.42897184     0.09600
H571        H  0.36506054  0.89539065  0.49071164     0.07600
Br572      Br  0.27755345  0.82807181  0.47686589    -0.03000
C573        C  0.79642166  0.63784674  0.43691695    -0.09600
C574        C  0.81014363  0.67659434  0.42020337     0.06600
C575        C  0.81957363  0.71460174  0.43728153    -0.03400
C576        C  0.81808134  0.71355656  0.47032719    -0.07800
C577        C  0.80688011  0.67524532  0.48684088     0.05700
C578        C  0.79508320  0.63688622  0.46974431    -0.02900
Br579      Br  0.78277370  0.58322312  0.98947427    -0.02600
H580        H  0.78878328  0.60822914  0.42447504     0.09600
H581        H  0.82731834  0.74324302  0.48325630     0.07600
Br582      Br  0.83779493  0.76972767  0.41775935    -0.03000
C583        C  0.84163127  0.63306615  0.18655263    -0.09600
C584        C  0.86264707  0.67212815  0.16971366     0.06600
C585        C  0.88652384  0.71150605  0.18658463    -0.03400
C586        C  0.88610625  0.71122363  0.21952812    -0.07800
C587        C  0.86263049  0.67242847  0.23630314     0.05700
C588        C  0.84145902  0.63279348  0.21949804    -0.02900
Br589      Br  0.80733471  0.57748317  0.23950780    -0.02600
H590        H  0.82336396  0.60257171  0.17401383     0.09600
H591        H  0.90276263  0.74182923  0.23213073     0.07600
Br592      Br  0.91656038  0.76742864  0.16679104    -0.03000
C593        C  0.69746466  0.57452874  0.28558369    -0.09600
C594        C  0.71285719  0.61433962  0.30127601     0.06600
C595        C  0.68494406  0.63150567  0.30499761    -0.03400
C596        C  0.64263232  0.60870848  0.29312130    -0.07800
C597        C  0.62707055  0.56872558  0.27744615     0.05700
C598        C  0.65530437  0.55182632  0.27352146    -0.02900
Br599      Br  0.63993658  0.49914131  0.25093993    -0.02600
H600        H  0.71873705  0.56126040  0.28206545     0.09600
H601        H  0.62151963  0.62212732  0.29674301     0.07600
Br602      Br  0.70137264  0.68443347  0.32757025    -0.03000
C603        C  0.97772326  0.71267939  0.37252739    -0.09600
C604        C  0.96298803  0.73704431  0.35581616     0.06600
C605        C  0.99124573  0.78217293  0.35238051    -0.03400
C606        C  0.03225023  0.80181297  0.36645519    -0.07800
C607        C  0.04655541  0.77753347  0.38356750     0.05700
C608        C  0.01898148  0.73235656  0.38628369    -0.02900
Br609      Br  0.03430986  0.69596632  0.41002281    -0.02600
H610        H  0.95665082  0.67810576  0.37565763     0.09600
H611        H  0.05349918  0.83640316  0.36347806     0.07600
Br612      Br  0.97745309  0.81923139  0.32796164    -0.03000
O613        O  0.78011302  0.67802842  0.81349197    -0.72200
O614        O  0.89903649  0.73568396  0.83641900    -0.72500
O615        O  0.85433304  0.70650901  0.78197734    -0.72300
O616        O  0.82479734  0.70704797  0.86795658    -0.72300
O617        O  0.82117218  0.64489000  0.87423982    -0.72300
O618        O  0.85098203  0.64444664  0.78874139    -0.72300
O619        O  0.89561892  0.67368206  0.84314166    -0.72300
O620        O  0.77681375  0.61593320  0.81988947    -0.72400
V621        V  0.83954942  0.70566154  0.82505663     1.35200
V622        V  0.83624593  0.64597613  0.83140386     1.35200
C623        C  0.75828268  0.63711642  0.81239582     0.77000
C624        C  0.91755912  0.71464503  0.84420216     0.77000
C625        C  0.85634306  0.67469587  0.77049859     0.76900
C626        C  0.81857313  0.67622236  0.88597266     0.76900
O627        O  0.22465240  0.90316689  0.93250459    -0.72200
O628        O  0.10744275  0.83956483  0.90547693    -0.72500
O629        O  0.14864862  0.85475216  0.96144266    -0.72300
O630        O  0.18274048  0.88739348  0.87642545    -0.72300
O631        O  0.18892937  0.83018947  0.87021123    -0.72300
O632        O  0.15510105  0.79767452  0.95499672    -0.72300
O633        O  0.11342401  0.78220279  0.89917505    -0.72300
O634        O  0.23074857  0.84589882  0.92612030    -0.72400
V635        V  0.16606063  0.87015745  0.91888652     1.35200
V636        V  0.17199386  0.81514911  0.91274445     1.35200
C637        C  0.24736991  0.88503044  0.93475868     0.77000
C638        C  0.09070276  0.80032293  0.89709416     0.77000
C639        C  0.14663910  0.82095490  0.97283630     0.76900
C640        C  0.18973163  0.86321375  0.85841016     0.76900
O641        O  0.44561404  0.02044185  0.98465267    -0.72200
O642        O  0.56354045  0.07644210  0.51051207    -0.72500
O643        O  0.52108831  0.04799786  0.95481787    -0.72300
O644        O  0.48842602  0.04867278  0.54033358    -0.72300
O645        O  0.48356471  0.98590670  0.54704943    -0.72300
O646        O  0.51568600  0.98512051  0.96219550    -0.72300
O647        O  0.55876055  0.01368702  0.51727750    -0.72300
O648        O  0.44076604  0.95791681  0.99200976    -0.72400
V649        V  0.50458090  0.04723607  0.99765159     1.35200
V650        V  0.49983650  0.98696091  0.00450155     1.35200
C651        C  0.42317799  0.97956632  0.98331534     0.77000
C652        C  0.58088993  0.05457529  0.51904964     0.77000
C653        C  0.52252305  0.01563875  0.94372975     0.76900
C654        C  0.48132017  0.01754478  0.55842901     0.76900
O655        O  0.22691467  0.39513619  0.68220854    -0.72200
O656        O  0.10890895  0.34120487  0.65762316    -0.72500
O657        O  0.15236167  0.36666819  0.71275321    -0.72300
O658        O  0.18380077  0.36978117  0.62715217    -0.72300
O659        O  0.17993064  0.30728745  0.63249448    -0.72300
O660        O  0.14575330  0.30290874  0.71764639    -0.72300
O661        O  0.10419161  0.27810649  0.66155583    -0.72300
O662        O  0.22155197  0.33211555  0.68830969    -0.72400
V663        V  0.16785146  0.36694858  0.67004083     1.35200
V664        V  0.16287836  0.30627467  0.67493595     1.35200
C665        C  0.24427224  0.37293726  0.68993881     0.77000
C666        C  0.08680213  0.30051308  0.65454618     0.77000
C667        C  0.14520289  0.33496459  0.73007752     0.76900
C668        C  0.18691264  0.33894633  0.61510769     0.76900
O669        O  0.77831005  0.11656030  0.56783406    -0.72200
O670        O  0.89624891  0.17625320  0.59336034    -0.72500
O671        O  0.82094954  0.13128495  0.62312982    -0.72300
O672        O  0.85398206  0.16124461  0.53818866    -0.72300
O673        O  0.85004534  0.21978390  0.54375537    -0.72300
O674        O  0.81891775  0.19070299  0.62972328    -0.72300
O675        O  0.89349447  0.23549137  0.59879565    -0.72300
O676        O  0.77510075  0.17531407  0.57465296    -0.72400
V677        V  0.83724951  0.14747368  0.58073899     1.35200
V678        V  0.83437110  0.20418712  0.58661999     1.35200
C679        C  0.75679253  0.13598576  0.56618960     0.77000
C680        C  0.91490505  0.21597571  0.60071393     0.77000
C681        C  0.81624783  0.15667660  0.64134915     0.76900
C682        C  0.85680955  0.19502851  0.52617278     0.76900
O683        O  0.44093872  0.50403994  0.74157984    -0.72200
O684        O  0.55965634  0.56466050  0.76496045    -0.72500
O685        O  0.51542060  0.54763028  0.71044775    -0.72300
O686        O  0.48490199  0.52126635  0.79604372    -0.72300
O687        O  0.48769485  0.46195666  0.79123240    -0.72300
O688        O  0.51804362  0.48824462  0.70530562    -0.72300
O689        O  0.56225698  0.50537116  0.75988127    -0.72300
O690        O  0.44338664  0.44468323  0.73670567    -0.72400
V691        V  0.50029546  0.53324504  0.75316865     1.35200
V692        V  0.50282403  0.47619875  0.74835432     1.35200
C693        C  0.42179909  0.46407853  0.73499770     0.77000
C694        C  0.58125297  0.54527110  0.76667863     0.77000
C695        C  0.52123707  0.52210696  0.69313204     0.76900
C696        C  0.48147620  0.48744133  0.80835794     0.76900
O697        O  0.22628777  0.33684266  0.90689790    -0.72200
O698        O  0.16347324  0.39164867  0.93320554    -0.72500
O699        O  0.21015343  0.36247352  0.96291279    -0.72300
O700        O  0.17969341  0.36604448  0.87772099    -0.72300
O701        O  0.12225809  0.30288552  0.88272482    -0.72300
O702        O  0.15194710  0.29984460  0.96825019    -0.72300
O703        O  0.10547453  0.32890421  0.93805151    -0.72300
O704        O  0.16864391  0.27385997  0.91285416    -0.72400
V705        V  0.19380790  0.36302998  0.92034029     1.35200
V706        V  0.13821044  0.30257753  0.92542229     1.35200
C707        C  0.20783695  0.29600821  0.90456514     0.77000
C708        C  0.12388130  0.36975693  0.94046325     0.77000
C709        C  0.18559267  0.33096945  0.98037775     0.76900
C710        C  0.14656516  0.33450886  0.86533446     0.76900
O711        O  0.36540360  0.19029945  0.87346772    -0.72200
O712        O  0.36376604  0.21890271  0.78746324    -0.72500
O713        O  0.33472311  0.23445195  0.84190844    -0.72300
O714        O  0.39428021  0.17480515  0.81934061    -0.72300
O715        O  0.33288749  0.11607113  0.81136521    -0.72300
O716        O  0.27329320  0.17431975  0.83736782    -0.72300
O717        O  0.30124004  0.16069168  0.78167432    -0.72300
O718        O  0.30485765  0.12994388  0.86659576    -0.72400
V719        V  0.36336375  0.20351917  0.83038534     1.35200
V720        V  0.30425767  0.14644558  0.82426401     1.35200
C721        C  0.33520955  0.15541594  0.88472800     0.77000
C722        C  0.33253856  0.19417523  0.76968372     0.77000
C723        C  0.29395624  0.21404800  0.84475597     0.76900
C724        C  0.37381146  0.13526966  0.81126472     0.76900
O725        O  0.01770363  0.50622895  0.54401260    -0.72200
O726        O  0.01993144  0.53788045  0.95852116    -0.72500
O727        O  0.99005912  0.55302996  0.51252820    -0.72300
O728        O  0.04720213  0.49113694  0.99018975    -0.72300
O729        O  0.98526909  0.43325050  0.98189802    -0.72300
O730        O  0.92772836  0.49491271  0.50536197    -0.72300
O731        O  0.95716656  0.48038360  0.95081653    -0.72300
O732        O  0.95551375  0.44792754  0.53650411    -0.72400
V733        V  0.01744831  0.52095566  0.50116961     1.35200
V734        V  0.95760022  0.46520844  0.49375047     1.35200
C735        C  0.98625568  0.47201544  0.55494729     0.77000
C736        C  0.98923103  0.51428397  0.93995687     0.77000
C737        C  0.94914817  0.53436457  0.51344751     0.76900
C738        C  0.02620748  0.45176547  0.98181279     0.76900
O739        O  0.67428474  0.78282268  0.65968396    -0.72200
O740        O  0.61833698  0.84540306  0.68267652    -0.72500
O741        O  0.64769312  0.83031534  0.62860767    -0.72300
O742        O  0.64520566  0.79815886  0.71420668    -0.72300
O743        O  0.70800743  0.85566300  0.72186079    -0.72300
O744        O  0.71041745  0.88782831  0.63626418    -0.72300
O745        O  0.68054749  0.90317415  0.69049240    -0.72300
O746        O  0.73706089  0.84022973  0.66745237    -0.72400
V747        V  0.64763846  0.81529853  0.67150369     1.35200
V748        V  0.70780683  0.87065038  0.67896321     1.35200
C749        C  0.71512534  0.80109368  0.65861815     0.77000
C750        C  0.63952917  0.88486738  0.69049612     0.77000
C751        C  0.67982771  0.86402130  0.61766530     0.76900
C752        C  0.67581969  0.82201103  0.73277835     0.76900
O753        O  0.77507576  0.67389101  0.59419417    -0.72200
O754        O  0.83201668  0.61308375  0.56850638    -0.72500
O755        O  0.81860502  0.64149795  0.62400395    -0.72300
O756        O  0.78888583  0.64570561  0.53865025    -0.72300
O757        O  0.84728877  0.70830606  0.53345889    -0.72300
O758        O  0.87974278  0.70100176  0.61748805    -0.72300
O759        O  0.89103447  0.67405405  0.56062468    -0.72300
O760        O  0.83575613  0.73487797  0.59077274    -0.72400
V761        V  0.80476421  0.64473687  0.58122567     1.35200
V762        V  0.86229183  0.70342537  0.57564448     1.35200
C763        C  0.79608687  0.71450024  0.59813009     0.77000
C764        C  0.87085539  0.63309959  0.55912487     0.77000
C765        C  0.85383096  0.67120306  0.63554346     0.76900
C766        C  0.81392045  0.67695521  0.52120485     0.76900
O767        O  0.51228696  0.95520993  0.73949304    -0.72200
O768        O  0.45091510  0.01176747  0.76548835    -0.72500
O769        O  0.46758853  0.98717489  0.70965676    -0.72300
O770        O  0.49531864  0.98015257  0.79532602    -0.72300
O771        O  0.55382320  0.04258597  0.79123400    -0.72300
O772        O  0.52666961  0.04921386  0.70553141    -0.72300
O773        O  0.50959471  0.07390772  0.76098247    -0.72300
O774        O  0.57126473  0.01748638  0.73577686    -0.72400
V775        V  0.48269650  0.98468368  0.75237192     1.35200
V776        V  0.53923143  0.04452479  0.74841104     1.35200
C777        C  0.55231177  0.97668274  0.73320138     0.77000
C778        C  0.46995726  0.05262599  0.76814332     0.77000
C779        C  0.49236909  0.01958643  0.69293738     0.76900
C780        C  0.52837118  0.01113796  0.80833562     0.76900
O781        O  0.38737117  0.23088933  0.56691318    -0.72200
O782        O  0.33484508  0.11344003  0.59257094    -0.72500
O783        O  0.35873345  0.15555657  0.53674750    -0.72300
O784        O  0.36319341  0.18913083  0.62249265    -0.72300
O785        O  0.29978186  0.18315227  0.61719348    -0.72300
O786        O  0.29534924  0.14967206  0.53206065    -0.72300
O787        O  0.27140173  0.10733278  0.58761179    -0.72300
O788        O  0.32410131  0.22534506  0.56188701    -0.72400
V789        V  0.35982096  0.17212386  0.57957522     1.35200
V790        V  0.29887018  0.16642533  0.57476656     1.35200
C791        C  0.36487456  0.24809970  0.55967195     0.77000
C792        C  0.29421644  0.09054509  0.59536634     0.77000
C793        C  0.32659175  0.14803060  0.51951015     0.76900
C794        C  0.33153641  0.19064442  0.63465161     0.76900
O795        O  0.56147728  0.56252183  0.98731752    -0.72200
O796        O  0.49727973  0.44391939  0.51011336    -0.72500
O797        O  0.51648039  0.48793330  0.95575415    -0.72300
O798        O  0.54230629  0.51844009  0.54171273    -0.72300
O799        O  0.48354498  0.52220756  0.54605095    -0.72300
O800        O  0.45886434  0.49384343  0.95958921    -0.72300
O801        O  0.43877138  0.44817957  0.51347525    -0.72300
O802        O  0.50366619  0.56770811  0.99222878    -0.72400
V803        V  0.52821463  0.50322725  0.49880345     1.35200
V804        V  0.47229559  0.50787109  0.50277075     1.35200
C805        C  0.54348109  0.58540552  0.98557293     0.77000
C806        C  0.45712195  0.42561393  0.51557390     0.77000
C807        C  0.48363195  0.48619603  0.94286510     0.76900
C808        C  0.51698886  0.52493217  0.55869200     0.76900
O809        O  0.16417579  0.77626263  0.67538937    -0.72200
O810        O  0.22639379  0.89448458  0.64972122    -0.72500
O811        O  0.20979866  0.85227798  0.70541882    -0.72300
O812        O  0.18109552  0.81838942  0.62003404    -0.72300
O813        O  0.12242678  0.82219601  0.62464952    -0.72300
O814        O  0.15150938  0.85667889  0.71037910    -0.72300
O815        O  0.16762387  0.89819798  0.65432824    -0.72300
O816        O  0.10582299  0.78052533  0.68035973    -0.72400
V817        V  0.19424490  0.83545627  0.66278888     1.35200
V818        V  0.13801213  0.83938858  0.66740849     1.35200
C819        C  0.12434681  0.75812331  0.68225997     0.77000
C820        C  0.20701454  0.91594472  0.64641038     0.77000
C821        C  0.18497615  0.85892420  0.72282652     0.76900
C822        C  0.14735232  0.81514285  0.60752921     0.76900
O823        O  0.99670267  0.44528268  0.76127286    -0.72200
O824        O  0.05238529  0.56263355  0.73521635    -0.72500
O825        O  0.02923157  0.52118646  0.79123306    -0.72300
O826        O  0.01916263  0.48594753  0.70554609    -0.72300
O827        O  0.95706073  0.48324855  0.70238940    -0.72300
O828        O  0.96682885  0.51777956  0.78818880    -0.72300
O829        O  0.99023387  0.55999716  0.73240748    -0.72300
O830        O  0.93429519  0.44185758  0.75801104    -0.72400
V831        V  0.02321572  0.50385149  0.74825482     1.35200
V832        V  0.96333376  0.50088180  0.74527003     1.35200
C833        C  0.95602018  0.42351158  0.76435985     0.77000
C834        C  0.03095567  0.58134702  0.72903189     0.77000
C835        C  0.99905909  0.52392996  0.80474159     0.76900
C836        C  0.98619923  0.47834321  0.68931143     0.76900
O837        O  0.89800555  0.22979561  0.81848677    -0.72200
O838        O  0.84040766  0.11172950  0.84301403    -0.72500
O839        O  0.85348424  0.15462708  0.78792607    -0.72300
O840        O  0.88466416  0.18713075  0.87359368    -0.72300
O841        O  0.82592901  0.19055260  0.87979329    -0.72300
O842        O  0.79348661  0.15531358  0.79513098    -0.72300
O843        O  0.78140382  0.11404597  0.85077810    -0.72300
O844        O  0.83825047  0.23135448  0.82423922    -0.72400
V845        V  0.86799649  0.17080765  0.83087722     1.35200
V846        V  0.81089900  0.17270097  0.83738075     1.35200
C847        C  0.87773134  0.25041943  0.81635746     0.77000
C848        C  0.80136615  0.09300210  0.85191567     0.77000
C849        C  0.81898239  0.15131635  0.77663853     0.76900
C850        C  0.86000856  0.19351999  0.89146506     0.76900
O851        O  0.68485720  0.78454259  0.94083993    -0.72200
O852        O  0.74383526  0.90222840  0.91406827    -0.72500
O853        O  0.71893890  0.86148120  0.97031241    -0.72300
O854        O  0.70992863  0.82547925  0.88473569    -0.72300
O855        O  0.64836179  0.82366463  0.88081751    -0.72300
O856        O  0.65760553  0.86020451  0.96580956    -0.72300
O857        O  0.68222422  0.90025974  0.90980447    -0.72300
O858        O  0.62374012  0.78359746  0.93669624    -0.72400
V859        V  0.71327827  0.84341527  0.92745835     1.35200
V860        V  0.65422736  0.84196488  0.92338905     1.35200
C861        C  0.64406769  0.76401605  0.94364339     0.77000
C862        C  0.72292464  0.92106800  0.90661924     0.77000
C863        C  0.68934844  0.86621842  0.98284957     0.76900
C864        C  0.67804231  0.81949075  0.86786592     0.76900
C865        C  0.71779559  0.98075011  0.88057955    -0.09600
C866        C  0.74434911  0.96554079  0.89325011     0.06600
C867        C  0.78986133  0.99253877  0.89146463    -0.03400
C868        C  0.80736947  0.03333154  0.87729278    -0.07800
C869        C  0.78068805  0.04846585  0.86483342     0.05700
C870        C  0.73529411  0.02146710  0.86648599    -0.02900
Br871      Br  0.69483103  0.03670543  0.84887168    -0.02600
H872        H  0.68283540  0.96058620  0.88117205     0.09600
H873        H  0.84230933  0.05376275  0.87660927     0.07600
Br874      Br  0.83054150  0.97713445  0.90836391    -0.03000
C875        C  0.96153919  0.36447813  0.79121687    -0.09600
C876        C  0.93523522  0.37844301  0.77636751     0.06600
C877        C  0.89008068  0.34949771  0.77451385    -0.03400
C878        C  0.87235725  0.30853536  0.78830951    -0.07800
C879        C  0.89861761  0.29486843  0.80346381     0.05700
C880        C  0.94386234  0.32324250  0.80455261    -0.02900
Br881      Br  0.98347742  0.30904216  0.82499869    -0.02600
H882        H  0.99626184  0.38605609  0.79300115     0.09600
H883        H  0.83766955  0.28676638  0.78651135     0.07600
Br884      Br  0.85056659  0.36217347  0.75228980    -0.03000
C885        C  0.09108859  0.64017883  0.69893399    -0.09600
C886        C  0.05346814  0.62648737  0.71699047     0.06600
C887        C  0.03863367  0.65602907  0.72262490    -0.03400
C888        C  0.06191167  0.69835718  0.71077012    -0.07800
C889        C  0.09999882  0.71228551  0.69307207     0.05700
C890        C  0.11402770  0.68220956  0.68673883    -0.02900
Br891      Br  0.16258907  0.69495618  0.66018868    -0.02600
H892        H  0.10241607  0.61767367  0.69371161     0.09600
H893        H  0.05048546  0.72077457  0.71598718     0.07600
Br894      Br  0.98847484  0.64170550  0.74777743    -0.03000
C895        C  0.61420030  0.65152752  0.97442825    -0.09600
C896        C  0.56870921  0.63145648  0.97564792     0.06600
C897        C  0.54881981  0.65560568  0.96643687    -0.03400
C898        C  0.57430086  0.69832995  0.95633762    -0.07800
C899        C  0.61975270  0.71841659  0.95484541     0.05700
C900        C  0.63976540  0.69437908  0.96421761    -0.02900
Br901      Br  0.70139579  0.71698031  0.96390618    -0.02600
H902        H  0.63024093  0.63374843  0.98144245     0.09600
H903        H  0.55799839  0.71583794  0.94929760     0.07600
Br904      Br  0.48715667  0.63281262  0.96553094    -0.03000
C905        C  0.27366955  0.98798066  0.63913819    -0.09600
C906        C  0.22943247  0.96023878  0.63286916     0.06600
C907        C  0.20755412  0.97507161  0.61307900    -0.03400
C908        C  0.22948625  0.01721726  0.60102528    -0.07800
C909        C  0.27350288  0.04548928  0.60778329     0.05700
C910        C  0.29575879  0.03026110  0.62702763    -0.02900
Br911      Br  0.35542913  0.06564068  0.63944055    -0.02600
H912        H  0.29099890  0.97702753  0.65411782     0.09600
H913        H  0.21192683  0.02777805  0.58594237     0.07600
Br914      Br  0.14851314  0.93862311  0.59965402    -0.03000
C915        C  0.39250466  0.36380550  0.54051238    -0.09600
C916        C  0.43250390  0.37938167  0.52507921     0.06600
C917        C  0.44865263  0.35068604  0.52019854    -0.03400
C918        C  0.42581592  0.30840913  0.53170515    -0.07800
C919        C  0.38646278  0.29315455  0.54776451     0.05700
C920        C  0.36944391  0.32118830  0.55180034    -0.02900
Br921      Br  0.31660124  0.30453008  0.57418388    -0.02600
H922        H  0.37949693  0.38518833  0.54457242     0.09600
H923        H  0.43885985  0.28703089  0.52771274     0.07600
Br924      Br  0.50065847  0.36567018  0.49708841    -0.03000
C925        C  0.71101990  0.81897916  0.78258614    -0.09600
C926        C  0.67355747  0.81246250  0.76676055     0.06600
C927        C  0.63605858  0.80183358  0.78431614    -0.03400
C928        C  0.63755398  0.80100773  0.81720228    -0.07800
C929        C  0.67599382  0.81082189  0.83339577     0.05700
C930        C  0.71247976  0.81767252  0.81556782    -0.02900
Br931      Br  0.76621924  0.82803076  0.83403525    -0.02600
H932        H  0.73982646  0.82651992  0.76921237     0.09600
H933        H  0.60892723  0.79501492  0.83017518     0.07600
Br934      Br  0.58352188  0.79382401  0.76518795    -0.03000
C935        C  0.72366735  0.89084027  0.56890272    -0.09600
C936        C  0.68300507  0.87325761  0.58353002     0.06600
C937        C  0.64587055  0.86035848  0.56467834    -0.03400
C938        C  0.64930904  0.86113465  0.53186264    -0.07800
C939        C  0.68935954  0.87460198  0.51711668     0.05700
C940        C  0.72717681  0.89170014  0.53598759    -0.02900
Br941      Br  0.78438601  0.91658437  0.51855330    -0.02600
H942        H  0.75269991  0.90189680  0.58309047     0.09600
H943        H  0.61996687  0.84904570  0.51789743     0.07600
Br944      Br  0.58957633  0.84132525  0.58230601    -0.03000
C945        C  0.71381183  0.74753848  0.62074306    -0.09600
C946        C  0.73601017  0.77796479  0.64483165     0.06600
C947        C  0.77814201  0.78723980  0.65333354    -0.03400
C948        C  0.79759164  0.76712993  0.63710652    -0.07800
C949        C  0.77543427  0.73709308  0.61284382     0.05700
C950        C  0.73303050  0.72709136  0.60483715    -0.02900
Br951      Br  0.70082611  0.68783342  0.57115165    -0.02600
H952        H  0.68163820  0.74038464  0.61359871     0.09600
H953        H  0.82973211  0.77401824  0.64411434     0.07600
Br954      Br  0.80942640  0.82443394  0.68818317    -0.03000
C955        C  0.64067187  0.94870609  0.71588363    -0.09600
C956        C  0.61692825  0.90866708  0.70018665     0.06600
C957        C  0.57194847  0.89189957  0.69514885    -0.03400
C958        C  0.55199248  0.91458456  0.70634803    -0.07800
C959        C  0.57564917  0.95432026  0.72225853     0.05700
C960        C  0.62062930  0.97150347  0.72689226    -0.02900
Br961      Br  0.65633628  0.02442532  0.74968438    -0.02600
H962        H  0.67502499  0.96212035  0.72024522     0.09600
H963        H  0.51760210  0.90122409  0.70212293     0.07600
Br964      Br  0.53523758  0.83917061  0.67235143    -0.03000
C965        C  0.03276784  0.53944729  0.89122186    -0.09600
C966        C  0.99255375  0.52433412  0.90595361     0.06600
C967        C  0.95623466  0.51578961  0.88742742    -0.03400
C968        C  0.95986688  0.51886813  0.85454124    -0.07800
C969        C  0.99933408  0.53021404  0.83945456     0.05700
C970        C  0.03652902  0.54239586  0.85837629    -0.02900
Br971      Br  0.09341777  0.56251042  0.84145607    -0.02600
H972        H  0.06118653  0.54696277  0.90526120     0.09600
H973        H  0.93104306  0.51036733  0.84071978     0.07600
Br974      Br  0.90118350  0.50037403  0.90580752    -0.03000
C975        C  0.94515061  0.44799208  0.60498284    -0.09600
C976        C  0.98444965  0.46278319  0.58898347     0.06600
C977        C  0.02239255  0.47437286  0.60651000    -0.03400
C978        C  0.02164956  0.47650274  0.63938892    -0.07800
C979        C  0.98332272  0.46673252  0.65540681     0.05700
C980        C  0.94417260  0.44948477  0.63795862    -0.02900
Br981      Br  0.88838957  0.42752520  0.65733272    -0.02600
H982        H  0.91541416  0.43759915  0.59178002     0.09600
H983        H  0.05176164  0.48789175  0.65229169     0.07600
Br984      Br  0.07604442  0.48764561  0.58668294    -0.03000
C985        C  0.94912005  0.60364978  0.51971197    -0.09600
C986        C  0.92754968  0.55853922  0.52399930     0.06600
C987        C  0.88707510  0.53828378  0.53938935    -0.03400
C988        C  0.86956297  0.56331402  0.55044112    -0.07800
C989        C  0.89138797  0.60863046  0.54659821     0.05700
C990        C  0.93150084  0.62870872  0.53050889    -0.02900
Br991      Br  0.96397705  0.68966332  0.52126308    -0.02600
H992        H  0.97982324  0.61954783  0.00749048     0.09600
H993        H  0.83876466  0.54704445  0.56256968     0.07600
Br994      Br  0.85504676  0.47717901  0.54808716    -0.03000
C995        C  0.36751139  0.15699221  0.97010500    -0.09600
C996        C  0.32724009  0.14139180  0.98508785     0.06600
C997        C  0.28933139  0.12486077  0.96627073    -0.03400
C998        C  0.29275464  0.12722138  0.93346687    -0.07800
C999        C  0.33330799  0.14627635  0.91872316     0.05700
C1000       C  0.37083863  0.15980842  0.93724035    -0.02900
Br1001     Br  0.42736309  0.18252168  0.91903304    -0.02600
H1002       H  0.39695211  0.16927124  0.98397937     0.09600
H1003       H  0.26356410  0.11623805  0.91946153     0.07600
Br1004     Br  0.23180043  0.09970940  0.98327058    -0.03000
C1005       C  0.29324323  0.18006227  0.71896367    -0.09600
C1006       C  0.33280718  0.20199842  0.73535541     0.06600
C1007       C  0.37150653  0.22563499  0.71792929    -0.03400
C1008       C  0.37010338  0.22335294  0.68495319    -0.07800
C1009       C  0.33077003  0.19855265  0.66876712     0.05700
C1010       C  0.29180104  0.17810129  0.68610571    -0.02900
Br1011     Br  0.23570729  0.14247120  0.66717204    -0.02600
H1012       H  0.26314985  0.16228105  0.73182833     0.09600
H1013       H  0.40018145  0.23980534  0.67191169     0.07600
Br1014     Br  0.42780043  0.25870496  0.73705887    -0.03000
C1015       C  0.44212260  0.13839844  0.79475133    -0.09600
C1016       C  0.39767806  0.11294401  0.80127702     0.06600
C1017       C  0.37771928  0.06741984  0.79772592    -0.03400
C1018       C  0.40191919  0.04890874  0.78679158    -0.07800
C1019       C  0.44623259  0.07448984  0.77963305     0.05700
C1020       C  0.46648336  0.11990155  0.78431134    -0.02900
Br1021     Br  0.52717891  0.15950664  0.77767441    -0.02600
H1022       H  0.45830819  0.17329251  0.79761584     0.09600
H1023       H  0.38577410  0.01399355  0.78410980     0.07600
Br1024     Br  0.31831029  0.02786723  0.80846912    -0.03000
C1025       C  0.09545359  0.45243880  0.97285755    -0.09600
C1026       C  0.04985979  0.42908135  0.97181822     0.06600
C1027       C  0.02902131  0.38566737  0.96081038    -0.03400
C1028       C  0.05386263  0.36733734  0.95082212    -0.07800
C1029       C  0.09942906  0.39103250  0.95147514     0.05700
C1030       C  0.12019295  0.43407196  0.96305535    -0.02900
Br1031     Br  0.18199751  0.46967909  0.96775435    -0.02600
H1032       H  0.11238774  0.48553995  0.98150724     0.09600
H1033       H  0.03721972  0.33419852  0.94223076     0.07600
Br1034     Br  0.96713498  0.34888203  0.95844139    -0.03000
C1035       C  0.25980950  0.29631497  0.86558538    -0.09600
C1036       C  0.23071019  0.27507740  0.89039626     0.06600
C1037       C  0.22216578  0.23340023  0.89943958    -0.03400
C1038       C  0.24225030  0.21374653  0.88353045    -0.07800
C1039       C  0.27128972  0.23503114  0.85881570     0.05700
C1040       C  0.27997318  0.27662746  0.84975761    -0.02900
Br1041     Br  0.31665086  0.30649620  0.81462929    -0.02600
H1042       H  0.26602798  0.32793241  0.85786713     0.09600
H1043       H  0.23610429  0.18209255  0.89112780     0.07600
Br1044     Br  0.18579078  0.20283315  0.93453278    -0.03000
C1045       C  0.49219627  0.45804882  0.85811317    -0.09600
C1046       C  0.47381279  0.47972550  0.84240445     0.06600
C1047       C  0.45290219  0.49753027  0.86009714    -0.03400
C1048       C  0.45408708  0.49667438  0.89295595    -0.07800
C1049       C  0.47604528  0.47856448  0.90869756     0.05700
C1050       C  0.49362216  0.45741274  0.89097498    -0.02900
Br1051     Br  0.52046431  0.42752640  0.90984594    -0.02600
H1052       H  0.50768674  0.44350171  0.84483226     0.09600
H1053       H  0.43961652  0.51227987  0.90619318     0.07600
Br1054     Br  0.42256790  0.52382258  0.84105902    -0.03000
C1055       C  0.50780223  0.55046183  0.64395869    -0.09600
C1056       C  0.52790587  0.52998787  0.65905842     0.06600
C1057       C  0.54991252  0.51395149  0.64084140    -0.03400
C1058       C  0.54829196  0.51532731  0.60801974    -0.07800
C1059       C  0.52474250  0.53218924  0.59286236     0.05700
C1060       C  0.50593285  0.55163206  0.61114801    -0.02900
Br1061     Br  0.47694488  0.57995556  0.59315948    -0.02600
H1062       H  0.49144617  0.56369178  0.65768639     0.09600
H1063       H  0.56376538  0.50111689  0.59435712     0.07600
Br1064     Br  0.58255958  0.48975556  0.65919698    -0.03000
C1065       C  0.88510662  0.18237242  0.97649309    -0.09600
C1066       C  0.86594946  0.20346137  0.99211673     0.06600
C1067       C  0.85125100  0.22699457  0.97405539    -0.03400
C1068       C  0.85277437  0.22594801  0.94113918    -0.07800
C1069       C  0.86867924  0.20188998  0.92557071     0.05700
C1070       C  0.88647030  0.18121628  0.94361002    -0.02900
Br1071     Br  0.90786577  0.14606809  0.92532469    -0.02600
H1072       H  0.89701352  0.16451533  0.98990665     0.09600
H1073       H  0.83928695  0.24224740  0.92756337     0.07600
Br1074     Br  0.82438101  0.25730945  0.99206406    -0.03000
C1075       C  0.79156242  0.16811007  0.69331747    -0.09600
C1076       C  0.81030992  0.14833812  0.67567670     0.06600
C1077       C  0.82732841  0.12520191  0.69177567    -0.03400
C1078       C  0.82727536  0.12433031  0.72472546    -0.07800
C1079       C  0.81058239  0.14601977  0.74232979     0.05700
C1080       C  0.79152681  0.16720791  0.72627201    -0.02900
Br1081     Br  0.76954605  0.20006077  0.74742915    -0.02600
H1082       H  0.77845103  0.18603509  0.68143532     0.09600
H1083       H  0.84215398  0.10812584  0.73671489     0.07600
Br1084     Br  0.85559761  0.09800913  0.67100439    -0.03000
C1085       C  0.11351735  0.29730465  0.78051926    -0.09600
C1086       C  0.13922496  0.33626010  0.76438044     0.06600
C1087       C  0.16299995  0.37497998  0.78183775    -0.03400
C1088       C  0.16212733  0.37373402  0.81469428    -0.07800
C1089       C  0.13861439  0.33444057  0.83100935     0.05700
C1090       C  0.11286293  0.29595681  0.81350748    -0.02900
Br1091     Br  0.07899730  0.23977778  0.83236456    -0.02600
H1092       H  0.09512333  0.26735816  0.76736816     0.09600
H1093       H  0.18202508  0.40363175  0.82754608     0.07600
Br1094     Br  0.20209640  0.42986177  0.76286991    -0.03000
C1095       C  0.17740968  0.29761392  0.56591873    -0.09600
C1096       C  0.19497109  0.33809156  0.58103745     0.06600
C1097       C  0.21567717  0.37614595  0.56269235    -0.03400
C1098       C  0.21507200  0.37296482  0.52980908    -0.07800
C1099       C  0.19382514  0.33238895  0.51463051     0.05700
C1100       C  0.17652261  0.29443216  0.53307177    -0.02900
Br1101     Br  0.15062689  0.23723589  0.51511760    -0.02600
H1102       H  0.16211669  0.26802901  0.57961178     0.09600
H1103       H  0.22922009  0.40250856  0.51606321     0.07600
Br1104     Br  0.24491248  0.43334989  0.58082641    -0.03000
C1105       C  0.03050118  0.24508282  0.62000101    -0.09600
C1106       C  0.04269601  0.27960062  0.64122066     0.06600
C1107       C  0.01337190  0.29426953  0.64786557    -0.03400
C1108       C  0.97233479  0.27369998  0.63376535    -0.07800
C1109       C  0.95981372  0.23864658  0.61287655     0.05700
C1110       C  0.98974913  0.22489382  0.60556295    -0.02900
Br1111     Br  0.97843801  0.18079268  0.57472421    -0.02600
H1112       H  0.05327825  0.23439945  0.61398188     0.09600
H1113       H  0.94970119  0.28453251  0.63983751     0.07600
Br1114     Br  0.02629123  0.34022857  0.67738350    -0.03000
C1115       C  0.35841109  0.39845715  0.71223571    -0.09600
C1116       C  0.37574422  0.44060979  0.72473204     0.06600
C1117       C  0.34889729  0.45942609  0.72611230    -0.03400
C1118       C  0.30659058  0.43660553  0.71446698    -0.07800
C1119       C  0.28950959  0.39482353  0.70162221     0.05700
C1120       C  0.31584885  0.37550848  0.70077943    -0.02900
Br1121     Br  0.29708778  0.31911833  0.68295282    -0.02600
H1122       H  0.37828641  0.38332611  0.71081186     0.09600
H1123       H  0.28665075  0.45167777  0.71584955     0.07600
Br1124     Br  0.36636337  0.51547003  0.74410846    -0.03000
C1125       C  0.50893455  0.97318735  0.85994742    -0.09600
C1126       C  0.53468355  0.01157464  0.84306816     0.06600
C1127       C  0.56102078  0.05026971  0.86027881    -0.03400
C1128       C  0.55782556  0.05049337  0.89318837    -0.07800
C1129       C  0.52982729  0.01267959  0.90971462     0.05700
C1130       C  0.50643098  0.97332567  0.89284338    -0.02900
Br1131     Br  0.46660476  0.91938934  0.91265069    -0.02600
H1132       H  0.48887629  0.94303842  0.84742236     0.09600
H1133       H  0.57657464  0.08074444  0.90592138     0.07600
Br1134     Br  0.60010519  0.10484286  0.84095680    -0.03000
C1135       C  0.45478182  0.98248015  0.64324290    -0.09600
C1136       C  0.48259626  0.02143962  0.65907641     0.06600
C1137       C  0.50258571  0.06041443  0.64153270    -0.03400
C1138       C  0.49836398  0.05896128  0.60863060    -0.07800
C1139       C  0.47460915  0.01928705  0.59266822     0.05700
C1140       C  0.45061075  0.98115246  0.61040424    -0.02900
Br1141     Br  0.41195818  0.92626063  0.59101099    -0.02600
H1142       H  0.43775879  0.95238688  0.65623511     0.09600
H1143       H  0.51595448  0.08875618  0.59538493     0.07600
Br1144     Br  0.53644612  0.11663881  0.66063078    -0.03000
C1145       C  0.65221856  0.05863657  0.52300564    -0.09600
C1146       C  0.62575508  0.07594687  0.53109746     0.06600
C1147       C  0.64233236  0.11243440  0.55120359    -0.03400
C1148       C  0.68481349  0.13098451  0.56255263    -0.07800
C1149       C  0.71158731  0.11393431  0.55431333     0.05700
C1150       C  0.69487601  0.07739959  0.53405849    -0.02900
Br1151     Br  0.72870642  0.05280368  0.51867666    -0.02600
H1152       H  0.63987995  0.03076329  0.50741093     0.09600
H1153       H  0.69683493  0.15878902  0.57818492     0.07600
Br1154     Br  0.60798511  0.13686961  0.56569137    -0.03000
C1155       C  0.17431778  0.88744648  0.77363295    -0.09600
C1156       C  0.19339131  0.86694796  0.75718042     0.06600
C1157       C  0.21623320  0.85067023  0.77452183    -0.03400
C1158       C  0.21728764  0.85293240  0.80744735    -0.07800
C1159       C  0.19584048  0.87088367  0.82397450     0.05700
C1160       C  0.17531821  0.88960411  0.80663276    -0.02900
Br1161     Br  0.14385709  0.91432913  0.82607060    -0.02600
H1162       H  0.15686211  0.90032044  0.76080121     0.09600
H1163       H  0.23322058  0.83845291  0.82031085     0.07600
Br1164     Br  0.24263063  0.82036998  0.75564216    -0.03000
C1165       C  0.15961000  0.79189470  0.52205209    -0.09600
C1166       C  0.13822410  0.81089880  0.50674616     0.06600
C1167       C  0.11322901  0.82361243  0.52481674    -0.03400
C1168       C  0.11402143  0.82165582  0.55774335    -0.07800
C1169       C  0.13930032  0.80700450  0.57322111     0.05700
C1170       C  0.16028585  0.78969471  0.55492477    -0.02900
Br1171     Br  0.19086405  0.76304379  0.57298896    -0.02600
H1172       H  0.17796833  0.78067299  0.50843229     0.09600
H1173       H  0.09644506  0.83381560  0.57129511     0.07600
Br1174     Br  0.07725967  0.84355755  0.50591652    -0.03000
C1175       C  0.31683123  0.95392642  0.94279072    -0.09600
C1176       C  0.29201787  0.90898756  0.94755128     0.06600
C1177       C  0.31003423  0.88815719  0.96516999    -0.03400
C1178       C  0.35235167  0.91205567  0.97676012    -0.07800
C1179       C  0.37773183  0.95692383  0.97153152     0.05700
C1180       C  0.35929360  0.97798286  0.95439216    -0.02900
Br1181     Br  0.38991368  0.03881911  0.94459649    -0.02600
H1182       H  0.30334209  0.97042232  0.92946071     0.09600
H1183       H  0.36534710  0.89521641  0.99021417     0.07600
Br1184     Br  0.27800534  0.82778659  0.97618206    -0.03000
C1185       C  0.79636425  0.63774144  0.93693036    -0.09600
C1186       C  0.81010843  0.67648959  0.92021227     0.06600
C1187       C  0.81954209  0.71450256  0.93728431    -0.03400
C1188       C  0.81803341  0.71346230  0.97032890    -0.07800
C1189       C  0.80681169  0.67515120  0.98684908     0.05700
C1190       C  0.79500517  0.63678519  0.96975839    -0.02900
Br1191     Br  0.78289678  0.58333016  0.48944812    -0.02600
H1192       H  0.78872122  0.60812002  0.92449216     0.09600
H1193       H  0.82727880  0.74315427  0.98325310     0.07600
Br1194     Br  0.83779779  0.76963289  0.91775749    -0.03000
C1195       C  0.84151274  0.63302037  0.68654429    -0.09600
C1196       C  0.86261185  0.67208945  0.66971751     0.06600
C1197       C  0.88656472  0.71144374  0.68660361    -0.03400
C1198       C  0.88614617  0.71113788  0.71954790    -0.07800
C1199       C  0.86259455  0.67234239  0.73630912     0.05700
C1200       C  0.84133535  0.63272528  0.71948959    -0.02900
Br1201     Br  0.80708046  0.57742633  0.73948331    -0.02600
H1202       H  0.82318409  0.60254215  0.67399690     0.09600
H1203       H  0.90286537  0.74172949  0.73216304     0.07600
Br1204     Br  0.91672462  0.76737554  0.66683348    -0.03000
C1205       C  0.69743119  0.57442930  0.78561267    -0.09600
C1206       C  0.71283981  0.61425967  0.80128022     0.06600
C1207       C  0.68494385  0.63145091  0.80497339    -0.03400
C1208       C  0.64263409  0.60865962  0.79309344    -0.07800
C1209       C  0.62705680  0.56865814  0.77744223     0.05700
C1210       C  0.65527302  0.55173277  0.77354641    -0.02900
Br1211     Br  0.63988454  0.49901655  0.75100155    -0.02600
H1212       H  0.71868923  0.56113947  0.78211715     0.09600
H1213       H  0.62153516  0.62209925  0.79669320     0.07600
Br1214     Br  0.70139138  0.68440839  0.82751050    -0.03000
C1215       C  0.97767110  0.71256629  0.87259694    -0.09600
C1216       C  0.96296066  0.73691871  0.85584057     0.06600
C1217       C  0.99123655  0.78203711  0.85236894    -0.03400
C1218       C  0.03223650  0.80168309  0.86644980    -0.07800
C1219       C  0.04651983  0.77741816  0.88360401     0.05700
C1220       C  0.01892632  0.73224998  0.88636060    -0.02900
Br1221     Br  0.03422680  0.69589108  0.91016755    -0.02600
H1222       H  0.95658090  0.67800122  0.87575742     0.09600
H1223       H  0.05350061  0.83626506  0.86344273     0.07600
Br1224     Br  0.97747586  0.81906785  0.82788573    -0.03000
loop_ 
_geom_bond_atom_site_label_1 
_geom_bond_atom_site_label_2 
_geom_bond_distance 
_geom_bond_site_symmetry_2 
_ccdc_geom_bond_type 
O1            V9   1.897       .  S
O1           C11   1.263       .  A
O2            V9   1.895       .  S
O2           C12   1.263       .  A
O3            V9   1.899       .  S
O3           C13   1.266       .  A
O4            V9   1.902       .  S
O4           C14   1.263       .  A
O5           V10   1.890       .  S
O5           C14   1.265       .  A
O6           V10   1.893       .  S
O6           C13   1.261       .  A
O7           V10   1.897       .  S
O7           C12   1.265       .  A
O8           V10   1.895       .  S
O8           C11   1.264       .  A
V9           V10   2.085       .  T
C11         C594   1.477       .  S
C12         C604   1.483       .  S
C13         C587   1.476       .  S
C14         C574   1.485       .  S
O15          V23   1.899       .  S
O15          C25   1.264       .  A
O16          V23   1.894       .  S
O16          C26   1.264       .  A
O17          V23   1.901       .  S
O17          C27   1.265       .  A
O18          V23   1.902       .  S
O18          C28   1.264       .  A
O19          V24   1.895       .  S
O19          C28   1.265       .  A
O20          V24   1.896       .  S
O20          C27   1.264       .  A
O21          V24   1.898       .  S
O21          C26   1.263       .  A
O22          V24   1.897       .  S
O22          C25   1.264       .  A
V23          V24   2.086       .  T
C25         C564   1.479       .  S
C26         C607   1.476       .  S
C27        C1166   1.478       .  S
C28         C547   1.483       .  S
O29          V37   1.900       .  S
O29          C39   1.263   1_545  A
O30         V649   1.897   1_554  S
O30          C40   1.263       .  A
O31          V37   1.907       .  S
O31          C41   1.267       .  A
O32         V649   1.908   1_554  S
O32          C42   1.266       .  A
O33         V650   1.891       .  S
O33          C42   1.262   1_565  A
O34          V38   1.893       .  S
O34          C41   1.261   1_565  A
O35         V650   1.897   1_545  S
O35          C40   1.264       .  A
O36          V38   1.895       .  S
O36          C39   1.265       .  A
V37         O642   1.896       .  S
V37         O644   1.908       .  S
V37          V38   2.086   1_545  T
V38         O645   1.891       .  S
V38         O647   1.897   1_565  S
C39         C567   1.486       .  S
C40         C534   1.473       .  S
C41         C517   1.479       .  S
C42         C527   1.478       .  S
O43          V51   1.892       .  S
O43          C53   1.264       .  A
O44          V51   1.895       .  S
O44          C54   1.263       .  A
O45          V51   1.893       .  S
O45          C55   1.262       .  A
O46          V51   1.895       .  S
O46          C56   1.263       .  A
O47          V52   1.896       .  S
O47          C56   1.264       .  A
O48          V52   1.897       .  S
O48          C55   1.264       .  A
O49          V52   1.895       .  S
O49          C54   1.264       .  A
O50          V52   1.898       .  S
O50          C53   1.263       .  A
V51          V52   2.086       .  T
C53         C507   1.479       .  S
C54         C494   1.471       .  S
C55         C474   1.474       .  S
C56         C484   1.477       .  S
O57          V65   1.897       .  S
O57          C67   1.263       .  A
O58          V65   1.895       .  S
O58          C68   1.263       .  A
O59          V65   1.891       .  S
O59          C69   1.261       .  A
O60          V65   1.889       .  S
O60          C70   1.263       .  A
O61          V66   1.904       .  S
O61          C70   1.265       .  A
O62          V66   1.902       .  S
O62          C69   1.267       .  A
O63          V66   1.894       .  S
O63          C68   1.263       .  A
O64          V66   1.895       .  S
O64          C67   1.264       .  A
V65          V66   2.085       .  T
C67         C537   1.481       .  S
C68         C497   1.476       .  S
C69         C464   1.480       .  S
C70        C1066   1.481   1_554  S
O71          V79   1.894       .  S
O71          C81   1.263       .  A
O72          V79   1.897       .  S
O72          C82   1.265       .  A
O73          V79   1.889       .  S
O73          C83   1.262       .  A
O74          V79   1.888       .  S
O74          C84   1.261       .  A
O75          V80   1.894       .  S
O75          C84   1.264       .  A
O76          V80   1.894       .  S
O76          C83   1.263       .  A
O77          V80   1.895       .  S
O77          C82   1.263       .  A
O78          V80   1.898       .  S
O78          C81   1.265       .  A
V79          V80   2.085       .  T
C81         C504   1.484       .  S
C82         C597   1.483       .  S
C83         C444   1.469       .  S
C84         C434   1.471       .  S
O85          V93   1.899       .  S
O85          C95   1.264       .  A
O86          V93   1.896       .  S
O86          C96   1.263       .  A
O87          V93   1.898       .  S
O87          C97   1.264       .  A
O88          V93   1.891       .  S
O88          C98   1.265       .  A
O89          V94   1.897       .  S
O89          C98   1.262       .  A
O90          V94   1.894       .  S
O90          C97   1.263       .  A
O91          V94   1.900       .  S
O91          C96   1.265       .  A
O92          V94   1.899       .  S
O92          C95   1.264       .  A
V93          V94   2.085       .  T
C95         C424   1.478       .  S
C96         C417   1.485       .  S
C97        C1099   1.477       .  S
C98         C477   1.482       .  S
O99         V107   1.897       .  S
O99         C109   1.264       .  A
O100        V107   1.899       .  S
O100        C110   1.263       .  A
O101        V107   1.899       .  S
O101        C111   1.264       .  A
O102        V107   1.896       .  S
O102        C112   1.265       .  A
O103        V108   1.898       .  S
O103        C112   1.263       .  A
O104        V108   1.897       .  S
O104        C111   1.264       .  A
O105        V108   1.893       .  S
O105        C110   1.265       .  A
O106        V108   1.893       .  S
O106        C109   1.263       .  A
V107        V108   2.085       .  T
C109        C387   1.472       .  S
C110        C394   1.481       .  S
C111        C427   1.471       .  S
C112        C404   1.485       .  S
O113        V121   1.892       .  S
O113        C123   1.263   1_455  A
O114        V733   1.896       .  S
O114        C124   1.263   1_455  A
O115        V121   1.896   1_655  S
O115        C125   1.264       .  A
O116        V733   1.892       .  S
O116        C126   1.264       .  A
O117        V734   1.904       .  S
O117        C126   1.265   1_655  A
O118        V122   1.900   1_554  S
O118        C125   1.264       .  A
O119        V734   1.903       .  S
O119        C124   1.265       .  A
O120        V122   1.905   1_554  S
O120        C123   1.265       .  A
V121        O726   1.896   1_554  S
V121        O728   1.892   1_554  S
V121        V122   2.085   1_454  T
V122        O729   1.904       .  S
V122        O731   1.903       .  S
C123        C364   1.475       .  S
C124        C354   1.477       .  S
C125        C374   1.480       .  S
C126        C414   1.489       .  S
O127        V135   1.892       .  S
O127        C137   1.263       .  A
O128        V135   1.890       .  S
O128        C138   1.261       .  A
O129        V135   1.896       .  S
O129        C139   1.264       .  A
O130        V135   1.900       .  S
O130        C140   1.264       .  A
O131        V136   1.897       .  S
O131        C140   1.264       .  A
O132        V136   1.899       .  S
O132        C139   1.264       .  A
O133        V136   1.908       .  S
O133        C138   1.268       .  A
O134        V136   1.902       .  S
O134        C137   1.265       .  A
V135        V136   2.086       .  T
C137        C334   1.477       .  S
C138        C344   1.487       .  S
C139        C324   1.477       .  S
C140        C314   1.474       .  S
O141        V149   1.894       .  S
O141        C151   1.263       .  A
O142        V149   1.895       .  S
O142        C152   1.264       .  A
O143        V149   1.897       .  S
O143        C153   1.265       .  A
O144        V149   1.895       .  S
O144        C154   1.263       .  A
O145        V150   1.898       .  S
O145        C154   1.264       .  A
O146        V150   1.894       .  S
O146        C153   1.262       .  A
O147        V150   1.900       .  S
O147        C152   1.264       .  A
O148        V150   1.900       .  S
O148        C151   1.264       .  A
V149        V150   2.085       .  T
C151        C337   1.472       .  S
C152        C377   1.486       .  S
C153        C584   1.478       .  S
C154       C1189   1.474   1_554  S
O155        V163   1.900       .  S
O155        C165   1.266       .  A
O156        V163   1.899   1_545  S
O156        C166   1.265       .  A
O157        V163   1.902       .  S
O157        C167   1.266   1_565  A
O158        V163   1.901       .  S
O158        C168   1.266   1_565  A
O159        V164   1.898       .  S
O159        C168   1.263       .  A
O160        V164   1.898       .  S
O160        C167   1.264       .  A
O161        V164   1.895       .  S
O161        C166   1.262       .  A
O162        V164   1.899       .  S
O162        C165   1.263   1_545  A
V163        V164   2.083   1_565  T
C165        C347   1.483       .  S
C166        C407   1.487       .  S
C167        C524   1.485       .  S
C168        C514   1.488       .  S
O169        V177   1.893       .  S
O169        C179   1.264       .  A
O170        V177   1.899       .  S
O170        C180   1.263       .  A
O171        V177   1.902       .  S
O171        C181   1.266       .  A
O172        V177   1.901       .  S
O172        C182   1.266       .  A
O173        V178   1.889       .  S
O173        C182   1.261       .  A
O174        V178   1.889       .  S
O174        C181   1.261       .  A
O175        V178   1.905       .  S
O175        C180   1.267       .  A
O176        V178   1.905       .  S
O176        C179   1.265       .  A
V177        V178   2.085       .  T
C179        C307   1.480       .  S
C180        C297   1.489       .  S
C181        C996   1.481   1_554  S
C182        C397   1.476       .  S
O183        V803   1.896       .  S
O183        C193   1.264       .  A
O184        V191   1.893   1_554  S
O184        C194   1.263       .  A
O185        V803   1.890       .  S
O185        C195   1.262       .  A
O186        V191   1.891   1_554  S
O186        C196   1.263       .  A
O187        V192   1.891       .  S
O187        C196   1.262       .  A
O188        V804   1.893       .  S
O188        C195   1.263       .  A
O189        V192   1.902       .  S
O189        C194   1.265       .  A
O190        V804   1.898       .  S
O190        C193   1.264       .  A
V191        O795   1.896       .  S
V191        O797   1.890       .  S
V191        V192   2.085   1_556  T
V192        O800   1.893   1_554  S
V192        O802   1.898   1_554  S
C193        C284   1.485       .  S
C194        C304   1.484       .  S
C195        C437   1.473       .  S
C196        C447   1.472       .  S
O197        V205   1.904       .  S
O197        C207   1.266       .  A
O198        V205   1.907       .  S
O198        C208   1.266       .  A
O199        V205   1.895       .  S
O199        C209   1.262       .  A
O200        V205   1.892       .  S
O200        C210   1.262       .  A
O201        V206   1.903       .  S
O201        C210   1.266       .  A
O202        V206   1.904       .  S
O202        C209   1.267       .  A
O203        V206   1.898       .  S
O203        C208   1.264       .  A
O204        V206   1.901       .  S
O204        C207   1.265       .  A
V205        V206   2.084       .  T
C207        C277   1.488       .  S
C208        C294   1.484       .  S
C209        C544   1.484       .  S
C210        C557   1.482       .  S
O211        V219   1.892   1_655  S
O211        C221   1.264       .  A
O212        V219   1.897       .  S
O212        C222   1.264       .  A
O213        V219   1.900       .  S
O213        C223   1.264   1_455  A
O214        V219   1.899       .  S
O214        C224   1.265   1_455  A
O215        V220   1.898       .  S
O215        C224   1.264       .  A
O216        V220   1.900       .  S
O216        C223   1.265       .  A
O217        V220   1.907       .  S
O217        C222   1.265   1_655  A
O218        V220   1.900       .  S
O218        C221   1.264       .  A
V219        V220   2.084   1_455  T
C221        C264   1.484       .  S
C222        C274   1.484       .  S
C223        C357   1.488       .  S
C224        C367   1.484       .  S
O225        V233   1.895       .  S
O225        C235   1.263       .  A
O226        V233   1.896       .  S
O226        C236   1.264       .  A
O227        V233   1.900       .  S
O227        C237   1.266       .  A
O228        V233   1.902       .  S
O228        C238   1.264       .  A
O229        V234   1.891       .  S
O229        C238   1.263       .  A
O230        V234   1.893       .  S
O230        C237   1.261       .  A
O231        V234   1.897       .  S
O231        C236   1.264       .  A
O232        V234   1.895       .  S
O232        C235   1.265       .  A
V233        V234   2.085       .  T
C235        C267   1.479       .  S
C236        C257   1.481       .  S
C237        C467   1.477       .  S
C238        C457   1.476       .  S
O239        V247   1.904       .  S
O239        C249   1.264       .  A
O240        V247   1.903       .  S
O240        C250   1.264       .  A
O241        V247   1.903       .  S
O241        C251   1.265       .  A
O242        V247   1.903       .  S
O242        C252   1.264       .  A
O243        V248   1.893       .  S
O243        C252   1.265       .  A
O244        V248   1.894       .  S
O244        C251   1.264       .  A
O245        V248   1.890       .  S
O245        C250   1.264       .  A
O246        V248   1.889       .  S
O246        C249   1.264       .  A
V247        V248   2.083       .  T
C249        C287   1.487       .  S
C250        C254   1.486       .  S
C251        C939   1.482       .  S
C252        C317   1.487       .  S
C253        C254   1.408       .  A
C253        C258   1.396   1_565  A
C253        H260   1.083       .  S
C254        C255   1.415       .  A
C255        C256   1.399   1_565  A
C255       Br262   1.922       .  S
C256        C257   1.406       .  A
C256        H261   1.084       .  S
C257        C258   1.411       .  A
C258       Br259   1.923       .  S
C263        C264   1.407       .  A
C263        C268   1.397       .  A
C263        H270   1.084       .  S
C264        C265   1.414       .  A
C265        C266   1.397       .  A
C265       Br272   1.922       .  S
C266        C267   1.405       .  A
C266        H271   1.084       .  S
C267        C268   1.412       .  A
C268       Br269   1.923       .  S
C273        C274   1.405       .  A
C273        C278   1.399       .  A
C273        H280   1.084       .  S
C274        C275   1.412       .  A
C275        C276   1.402       .  A
C275       Br282   1.921   1_455  S
C276        C277   1.408       .  A
C276        H281   1.083       .  S
C277        C278   1.414       .  A
C278       Br279   1.922       .  S
C283        C284   1.407       .  A
C283        C288   1.400       .  A
C283        H290   1.083       .  S
C284        C285   1.413       .  A
C285        C286   1.395       .  A
C285       Br292   1.923       .  S
C286        C287   1.407       .  A
C286        H291   1.083       .  S
C287        C288   1.415       .  A
C288       Br289   1.923       .  S
C293        C294   1.404       .  A
C293        C298   1.403   1_565  A
C293        H300   1.083       .  S
C294        C295   1.413       .  A
C295        C296   1.399   1_565  A
C295       Br302   1.922       .  S
C296        C297   1.404       .  A
C296        H301   1.083       .  S
C297        C298   1.418       .  A
C298       Br299   1.922       .  S
C303        C304   1.408       .  A
C303        C308   1.402       .  A
C303        H310   1.083       .  S
C304        C305   1.414       .  A
C305        C306   1.395       .  A
C305       Br312   1.923   1_554  S
C306        C307   1.403       .  A
C306        H311   1.084       .  S
C307        C308   1.412       .  A
C308       Br309   1.921       .  S
C313        C314   1.402       .  A
C313        C318   1.401       .  A
C313        H320   1.084       .  S
C314        C315   1.408       .  A
C315        C316   1.396       .  A
C315       Br322   1.922       .  S
C316        C317   1.408       .  A
C316        H321   1.083       .  S
C317        C318   1.417       .  A
C318       Br319   1.922       .  S
C323        C324   1.405       .  A
C323        C328   1.401       .  A
C323        H330   1.083       .  S
C324        C325   1.408       .  A
C325        C326   1.396       .  A
C325       Br332   1.921       .  S
C326        C327   1.406       .  A
C326        H331   1.083       .  S
C327        C863   1.483   1_554  S
C327        C328   1.413       .  A
C328       Br329   1.921       .  S
C333        C334   1.406       .  A
C333        C338   1.396       .  A
C333        H340   1.084       .  S
C334        C335   1.411       .  A
C335        C336   1.400       .  A
C335       Br342   1.920       .  S
C336        C337   1.405       .  A
C336        H341   1.084       .  S
C337        C338   1.407       .  A
C338       Br339   1.921       .  S
C343        C344   1.407       .  A
C343        C348   1.401       .  A
C343        H350   1.083       .  S
C344        C345   1.417       .  A
C345        C346   1.398       .  A
C345       Br352   1.924       .  S
C346        C347   1.403       .  A
C346        H351   1.084       .  S
C347        C348   1.413       .  A
C348       Br349   1.922   1_565  S
C353        C354   1.402   1_455  A
C353        C358   1.399       .  A
C353        H360   1.084       .  S
C354        C355   1.407       .  A
C355        C356   1.400       .  A
C355       Br362   1.920       .  S
C356        C357   1.409       .  A
C356        H361   1.083       .  S
C357        C358   1.415   1_655  A
C358       Br359   1.921       .  S
C363        C364   1.402       .  A
C363        C368   1.400       .  A
C363        H370   1.084       .  S
C364        C365   1.408   1_655  A
C365        C366   1.397       .  A
C365       Br372   1.920       .  S
C366        C367   1.406   1_455  A
C366        H371   1.084       .  S
C367        C368   1.416       .  A
C368       Br369   1.921       .  S
C373        C374   1.404       .  A
C373        C378   1.398       .  A
C373        H992   1.083       .  S
C374        C375   1.411       .  A
C375        C376   1.398       .  A
C375       Br382   1.922       .  S
C376        C377   1.408       .  A
C376        H381   1.083       .  S
C377        C378   1.416       .  A
C378       Br379   1.923       .  S
H380        C985   1.083       .  S
C383        C384   1.407       .  A
C383        C388   1.398       .  A
C383        H390   1.083       .  S
C384        C793   1.481       .  S
C384        C385   1.415       .  A
C385        C386   1.396       .  A
C385       Br392   1.923       .  S
C386        C387   1.402       .  A
C386        H391   1.084       .  S
C387        C388   1.408       .  A
C388       Br389   1.920       .  S
C393        C394   1.404       .  A
C393        C398   1.394       .  A
C393        H400   1.083       .  S
C394        C395   1.415       .  A
C395        C396   1.400       .  A
C395       Br402   1.921       .  S
C396        C397   1.403       .  A
C396        H401   1.084       .  S
C397        C398   1.412       .  A
C398       Br399   1.923       .  S
C403        C404   1.405       .  A
C403        C408   1.397       .  A
C403        H410   1.083       .  S
C404        C405   1.414       .  A
C405        C406   1.399       .  A
C405       Br412   1.923       .  S
C406        C407   1.407       .  A
C406        H411   1.083       .  S
C407        C408   1.416       .  A
C408       Br409   1.924       .  S
C413        C414   1.407       .  A
C413        C418   1.396       .  A
C413        H420   1.083       .  S
C414        C415   1.416       .  A
C415        C416   1.401       .  A
C415       Br422   1.923   1_455  S
C416        C417   1.406       .  A
C416        H421   1.083       .  S
C417        C418   1.413       .  A
C418       Br419   1.923       .  S
C423        C424   1.407       .  A
C423        C428   1.399       .  A
C423        H430   1.084       .  S
C424        C425   1.411       .  A
C425        C426   1.398       .  A
C425       Br432   1.920       .  S
C426        C427   1.403       .  A
C426        H431   1.084       .  S
C427        C428   1.407       .  A
C428       Br429   1.920       .  S
C433        C434   1.403       .  A
C433        C438   1.395       .  A
C433        H440   1.084       .  S
C434        C435   1.411       .  A
C435        C436   1.395       .  A
C435       Br442   1.922       .  S
C436        C437   1.404       .  A
C436        H441   1.084       .  S
C437        C438   1.412       .  A
C438       Br439   1.922       .  S
C443        C444   1.404       .  A
C443        C448   1.394       .  A
C443        H450   1.083       .  S
C444        C445   1.408       .  A
C445        C446   1.395       .  A
C445       Br452   1.921       .  S
C446        C447   1.405       .  A
C446        H451   1.083       .  S
C447        C448   1.411       .  A
C448       Br449   1.922       .  S
C453        C454   1.406       .  A
C453        C458   1.397       .  A
C453        H460   1.084       .  S
C454        C682   1.481       .  S
C454        C455   1.413       .  A
C455        C456   1.398       .  A
C455       Br462   1.921       .  S
C456        C457   1.404       .  A
C456        H461   1.084       .  S
C457        C458   1.410       .  A
C458       Br459   1.922       .  S
C463        C464   1.403       .  A
C463        C468   1.398       .  A
C463        H470   1.084       .  S
C464        C465   1.416       .  A
C465        C466   1.397       .  A
C465       Br472   1.923       .  S
C466        C467   1.401       .  A
C466        H471   1.084       .  S
C467        C468   1.414       .  A
C468       Br469   1.922       .  S
C473        C474   1.403       .  A
C473        C478   1.399       .  A
C473        H480   1.084       .  S
C474        C475   1.411       .  A
C475        C476   1.394       .  A
C475       Br482   1.923       .  S
C476        C477   1.405       .  A
C476        H481   1.083       .  S
C477        C478   1.416       .  A
C478       Br479   1.922       .  S
C483        C484   1.404       .  A
C483        C488   1.396       .  A
C483        H490   1.083       .  S
C484        C485   1.412       .  A
C485        C486   1.398       .  A
C485       Br492   1.922       .  S
C486        C487   1.405       .  A
C486        H491   1.083       .  S
C487        C709   1.477   1_554  S
C487        C488   1.411       .  A
C488       Br489   1.921       .  S
C493        C494   1.403       .  A
C493        C498   1.396   1_455  A
C493        H500   1.084       .  S
C494        C495   1.409       .  A
C495        C496   1.397   1_455  A
C495       Br502   1.921       .  S
C496        C497   1.406       .  A
C496        H501   1.084       .  S
C497        C498   1.411       .  A
C498       Br499   1.922       .  S
C503        C504   1.408       .  A
C503        C508   1.399       .  A
C503        H510   1.083       .  S
C504        C505   1.415       .  A
C505        C506   1.394       .  A
C505       Br512   1.923       .  S
C506        C507   1.403       .  A
C506        H511   1.083       .  S
C507        C508   1.412       .  A
C508       Br509   1.923       .  S
C513        C514   1.406   1_565  A
C513        C518   1.398       .  A
C513        H520   1.083       .  S
C514        C515   1.418       .  A
C515        C516   1.401       .  A
C515       Br522   1.922       .  S
C516        C517   1.401       .  A
C516        H521   1.084       .  S
C517        C518   1.412   1_545  A
C518       Br519   1.922       .  S
C523        C524   1.406   1_565  A
C523        C528   1.398       .  A
C523        H530   1.083       .  S
C524        C525   1.416       .  A
C525        C526   1.401       .  A
C525       Br532   1.922       .  S
C526        C527   1.403       .  A
C526        H531   1.083       .  S
C527        C528   1.410   1_545  A
C528       Br529   1.921       .  S
C533        C534   1.401       .  A
C533        C538   1.398       .  A
C533        H540   1.084       .  S
C534        C535   1.410       .  A
C535        C536   1.397       .  A
C535       Br542   1.921       .  S
C536        C537   1.405       .  A
C536        H541   1.084       .  S
C537        C538   1.415       .  A
C538       Br539   1.922       .  S
C543        C544   1.405       .  A
C543        C548   1.401       .  A
C543        H550   1.083       .  S
C544        C545   1.415       .  A
C545        C546   1.398       .  A
C545       Br552   1.923       .  S
C546        C547   1.403       .  A
C546        H551   1.084       .  S
C547        C548   1.414       .  A
C548       Br549   1.921       .  S
C553        C554   1.403       .  A
C553        C558   1.397       .  A
C553        H560   1.087       .  S
C554        C639   1.478   1_554  S
C554        C555   1.410       .  A
C555        C556   1.399       .  A
C555       Br562   1.920       .  S
C556        C557   1.406       .  A
C556        H561   1.086       .  S
C557        C558   1.414       .  A
C558       Br559   1.922       .  S
C563        C564   1.404       .  A
C563        C568   1.401       .  A
C563        H570   1.084       .  S
C564        C565   1.411       .  A
C565        C566   1.396       .  A
C565       Br572   1.922       .  S
C566        C567   1.406       .  A
C566        H571   1.083       .  S
C567        C568   1.417       .  A
C568       Br569   1.923   1_565  S
C573        C574   1.405       .  A
C573        C578   1.393       .  A
C573        H580   1.083       .  S
C574        C575   1.417       .  A
C575        C576   1.402       .  A
C575       Br582   1.921       .  S
C576        C577   1.403       .  A
C576        H581   1.084       .  S
C577        C766   1.474       .  S
C577        C578   1.410       .  A
C578      Br1191   1.923       .  S
Br579      C1190   1.923       .  S
C583        C584   1.404       .  A
C583        C588   1.397       .  A
C583        H590   1.084       .  S
C584        C585   1.415       .  A
C585        C586   1.397       .  A
C585       Br592   1.922       .  S
C586        C587   1.402       .  A
C586        H591   1.084       .  S
C587        C588   1.413       .  A
C588       Br589   1.922       .  S
C593        C594   1.403       .  A
C593        C598   1.396       .  A
C593        H600   1.084       .  S
C594        C595   1.411       .  A
C595        C596   1.398       .  A
C595       Br602   1.922       .  S
C596        C597   1.407       .  A
C596        H601   1.084       .  S
C597        C598   1.415       .  A
C598       Br599   1.923       .  S
C603        C604   1.407       .  A
C603        C608   1.398   1_655  A
C603        H610   1.083       .  S
C604        C605   1.415       .  A
C605        C606   1.396   1_655  A
C605       Br612   1.923       .  S
C606        C607   1.403       .  A
C606        H611   1.084       .  S
C607        C608   1.410       .  A
C608       Br609   1.921       .  S
O613        V621   1.897       .  S
O613        C623   1.263       .  A
O614        V621   1.895       .  S
O614        C624   1.263       .  A
O615        V621   1.899       .  S
O615        C625   1.266       .  A
O616        V621   1.902       .  S
O616        C626   1.263       .  A
O617        V622   1.890       .  S
O617        C626   1.265       .  A
O618        V622   1.893       .  S
O618        C625   1.261       .  A
O619        V622   1.897       .  S
O619        C624   1.265       .  A
O620        V622   1.895       .  S
O620        C623   1.264       .  A
V621        V622   2.085       .  T
C623       C1206   1.477       .  S
C624       C1216   1.483       .  S
C625       C1199   1.476       .  S
C626       C1186   1.485       .  S
O627        V635   1.899       .  S
O627        C637   1.264       .  A
O628        V635   1.893       .  S
O628        C638   1.264       .  A
O629        V635   1.901       .  S
O629        C639   1.265       .  A
O630        V635   1.902       .  S
O630        C640   1.264       .  A
O631        V636   1.895       .  S
O631        C640   1.265       .  A
O632        V636   1.896       .  S
O632        C639   1.264       .  A
O633        V636   1.898       .  S
O633        C638   1.263       .  A
O634        V636   1.897       .  S
O634        C637   1.264       .  A
V635        V636   2.086       .  T
C637       C1176   1.479       .  S
C638       C1219   1.476       .  S
C640       C1159   1.482       .  S
O641        V649   1.900       .  S
O641        C651   1.263   1_545  A
O642        C652   1.263       .  A
O643        V649   1.907       .  S
O643        C653   1.267       .  A
O644        C654   1.266       .  A
O645        C654   1.262   1_565  A
O646        V650   1.893   1_556  S
O646        C653   1.261   1_565  A
O647        C652   1.264       .  A
O648        V650   1.895   1_556  S
O648        C651   1.265       .  A
V649        V650   2.086   1_546  T
C651       C1179   1.486       .  S
C652       C1146   1.473       .  S
C653       C1129   1.479       .  S
C654       C1139   1.478       .  S
O655        V663   1.892       .  S
O655        C665   1.264       .  A
O656        V663   1.895       .  S
O656        C666   1.263       .  A
O657        V663   1.893       .  S
O657        C667   1.262       .  A
O658        V663   1.895       .  S
O658        C668   1.263       .  A
O659        V664   1.896       .  S
O659        C668   1.264       .  A
O660        V664   1.897       .  S
O660        C667   1.264       .  A
O661        V664   1.895       .  S
O661        C666   1.264       .  A
O662        V664   1.898       .  S
O662        C665   1.263       .  A
V663        V664   2.086       .  T
C665       C1119   1.479       .  S
C666       C1106   1.471       .  S
C667       C1086   1.475       .  S
C668       C1096   1.477       .  S
O669        V677   1.897       .  S
O669        C679   1.263       .  A
O670        V677   1.895       .  S
O670        C680   1.263       .  A
O671        V677   1.891       .  S
O671        C681   1.261       .  A
O672        V677   1.889       .  S
O672        C682   1.263       .  A
O673        V678   1.904       .  S
O673        C682   1.265       .  A
O674        V678   1.902       .  S
O674        C681   1.267       .  A
O675        V678   1.894       .  S
O675        C680   1.263       .  A
O676        V678   1.895       .  S
O676        C679   1.264       .  A
V677        V678   2.085       .  T
C679       C1149   1.480       .  S
C680       C1109   1.476       .  S
C681       C1076   1.481       .  S
O683        V691   1.894       .  S
O683        C693   1.263       .  A
O684        V691   1.897       .  S
O684        C694   1.265       .  A
O685        V691   1.889       .  S
O685        C695   1.262       .  A
O686        V691   1.888       .  S
O686        C696   1.261       .  A
O687        V692   1.895       .  S
O687        C696   1.264       .  A
O688        V692   1.894       .  S
O688        C695   1.263       .  A
O689        V692   1.895       .  S
O689        C694   1.263       .  A
O690        V692   1.898       .  S
O690        C693   1.265       .  A
V691        V692   2.085       .  T
C693       C1116   1.484       .  S
C694       C1209   1.483       .  S
C695       C1056   1.469       .  S
C696       C1046   1.471       .  S
O697        V705   1.899       .  S
O697        C707   1.264       .  A
O698        V705   1.897       .  S
O698        C708   1.263       .  A
O699        V705   1.898       .  S
O699        C709   1.264       .  A
O700        V705   1.891       .  S
O700        C710   1.265       .  A
O701        V706   1.897       .  S
O701        C710   1.262       .  A
O702        V706   1.894       .  S
O702        C709   1.263       .  A
O703        V706   1.900       .  S
O703        C708   1.265       .  A
O704        V706   1.899       .  S
O704        C707   1.264       .  A
V705        V706   2.085       .  T
C707       C1036   1.478       .  S
C708       C1029   1.485       .  S
C710       C1089   1.481       .  S
O711        V719   1.897       .  S
O711        C721   1.264       .  A
O712        V719   1.899       .  S
O712        C722   1.263       .  A
O713        V719   1.899       .  S
O713        C723   1.264       .  A
O714        V719   1.896       .  S
O714        C724   1.265       .  A
O715        V720   1.898       .  S
O715        C724   1.263       .  A
O716        V720   1.897       .  S
O716        C723   1.264       .  A
O717        V720   1.893       .  S
O717        C722   1.265       .  A
O718        V720   1.893       .  S
O718        C721   1.263       .  A
V719        V720   2.085       .  T
C721        C999   1.472       .  S
C722       C1006   1.481       .  S
C723       C1039   1.471       .  S
C724       C1016   1.485       .  S
O725        V733   1.893       .  S
O725        C735   1.263   1_455  A
O726        C736   1.263   1_455  A
O727        V733   1.896   1_655  S
O727        C737   1.264       .  A
O728        C738   1.264       .  A
O729        C738   1.265   1_655  A
O730        V734   1.900       .  S
O730        C737   1.264       .  A
O731        C736   1.265       .  A
O732        V734   1.905       .  S
O732        C735   1.265       .  A
V733        V734   2.085   1_455  T
C735        C976   1.475       .  S
C736        C966   1.477       .  S
C737        C986   1.480       .  S
C738       C1026   1.489       .  S
O739        V747   1.892       .  S
O739        C749   1.263       .  A
O740        V747   1.890       .  S
O740        C750   1.261       .  A
O741        V747   1.896       .  S
O741        C751   1.264       .  A
O742        V747   1.900       .  S
O742        C752   1.264       .  A
O743        V748   1.897       .  S
O743        C752   1.264       .  A
O744        V748   1.899       .  S
O744        C751   1.264       .  A
O745        V748   1.908       .  S
O745        C750   1.268       .  A
O746        V748   1.902       .  S
O746        C749   1.265       .  A
V747        V748   2.086       .  T
C749        C946   1.477       .  S
C750        C956   1.487       .  S
C751        C936   1.477       .  S
C752        C926   1.474       .  S
O753        V761   1.894       .  S
O753        C763   1.263       .  A
O754        V761   1.895       .  S
O754        C764   1.264       .  A
O755        V761   1.897       .  S
O755        C765   1.265       .  A
O756        V761   1.895       .  S
O756        C766   1.263       .  A
O757        V762   1.898       .  S
O757        C766   1.264       .  A
O758        V762   1.894       .  S
O758        C765   1.262       .  A
O759        V762   1.900       .  S
O759        C764   1.264       .  A
O760        V762   1.900       .  S
O760        C763   1.264       .  A
V761        V762   2.085       .  T
C763        C949   1.472       .  S
C764        C989   1.486       .  S
C765       C1196   1.478       .  S
O767        V775   1.900       .  S
O767        C777   1.266       .  A
O768        V775   1.899   1_545  S
O768        C778   1.265       .  A
O769        V775   1.902       .  S
O769        C779   1.266   1_565  A
O770        V775   1.901       .  S
O770        C780   1.266   1_565  A
O771        V776   1.898       .  S
O771        C780   1.263       .  A
O772        V776   1.898       .  S
O772        C779   1.264       .  A
O773        V776   1.895       .  S
O773        C778   1.262       .  A
O774        V776   1.899       .  S
O774        C777   1.263   1_545  A
V775        V776   2.083   1_565  T
C777        C959   1.482       .  S
C778       C1019   1.487       .  S
C779       C1136   1.485       .  S
C780       C1126   1.488       .  S
O781        V789   1.893       .  S
O781        C791   1.264       .  A
O782        V789   1.899       .  S
O782        C792   1.263       .  A
O783        V789   1.903       .  S
O783        C793   1.266       .  A
O784        V789   1.901       .  S
O784        C794   1.266       .  A
O785        V790   1.889       .  S
O785        C794   1.261       .  A
O786        V790   1.889       .  S
O786        C793   1.261       .  A
O787        V790   1.905       .  S
O787        C792   1.267       .  A
O788        V790   1.904       .  S
O788        C791   1.265       .  A
V789        V790   2.085       .  T
C791        C919   1.480       .  S
C792        C909   1.489       .  S
C794       C1009   1.476       .  S
O795        C805   1.264       .  A
O796        V803   1.893       .  S
O796        C806   1.263       .  A
O797        C807   1.262       .  A
O798        V803   1.891       .  S
O798        C808   1.263       .  A
O799        V804   1.891       .  S
O799        C808   1.262       .  A
O800        C807   1.263       .  A
O801        V804   1.902       .  S
O801        C806   1.265       .  A
O802        C805   1.264       .  A
V803        V804   2.085       .  T
C805        C896   1.485       .  S
C806        C916   1.484       .  S
C807       C1049   1.473       .  S
C808       C1059   1.472       .  S
O809        V817   1.904       .  S
O809        C819   1.265       .  A
O810        V817   1.907       .  S
O810        C820   1.266       .  A
O811        V817   1.895       .  S
O811        C821   1.262       .  A
O812        V817   1.892       .  S
O812        C822   1.262       .  A
O813        V818   1.903       .  S
O813        C822   1.266       .  A
O814        V818   1.904       .  S
O814        C821   1.267       .  A
O815        V818   1.898       .  S
O815        C820   1.264       .  A
O816        V818   1.901       .  S
O816        C819   1.265       .  A
V817        V818   2.084       .  T
C819        C889   1.488       .  S
C820        C906   1.483       .  S
C821       C1156   1.484       .  S
C822       C1169   1.482       .  S
O823        V831   1.893   1_655  S
O823        C833   1.263       .  A
O824        V831   1.897       .  S
O824        C834   1.264       .  A
O825        V831   1.900       .  S
O825        C835   1.264   1_455  A
O826        V831   1.900       .  S
O826        C836   1.265   1_455  A
O827        V832   1.898       .  S
O827        C836   1.264       .  A
O828        V832   1.900       .  S
O828        C835   1.265       .  A
O829        V832   1.907       .  S
O829        C834   1.265   1_655  A
O830        V832   1.900       .  S
O830        C833   1.264       .  A
V831        V832   2.084   1_455  T
C833        C876   1.483       .  S
C834        C886   1.484       .  S
C835        C969   1.488       .  S
C836        C979   1.484       .  S
O837        V845   1.895       .  S
O837        C847   1.263       .  A
O838        V845   1.896       .  S
O838        C848   1.264       .  A
O839        V845   1.900       .  S
O839        C849   1.266       .  A
O840        V845   1.901       .  S
O840        C850   1.264       .  A
O841        V846   1.891       .  S
O841        C850   1.263       .  A
O842        V846   1.893       .  S
O842        C849   1.261       .  A
O843        V846   1.898       .  S
O843        C848   1.264       .  A
O844        V846   1.895       .  S
O844        C847   1.265       .  A
V845        V846   2.085       .  T
C847        C879   1.478       .  S
C848        C869   1.481       .  S
C849       C1079   1.477       .  S
C850       C1069   1.476       .  S
O851        V859   1.904       .  S
O851        C861   1.264       .  A
O852        V859   1.903       .  S
O852        C862   1.264       .  A
O853        V859   1.903       .  S
O853        C863   1.265       .  A
O854        V859   1.903       .  S
O854        C864   1.264       .  A
O855        V860   1.893       .  S
O855        C864   1.265       .  A
O856        V860   1.894       .  S
O856        C863   1.264       .  A
O857        V860   1.890       .  S
O857        C862   1.263       .  A
O858        V860   1.889       .  S
O858        C861   1.264       .  A
V859        V860   2.083       .  T
C861        C899   1.487       .  S
C862        C866   1.486       .  S
C864        C929   1.487       .  S
C865        C866   1.408       .  A
C865        C870   1.396   1_565  A
C865        H872   1.083       .  S
C866        C867   1.415       .  A
C867        C868   1.399   1_565  A
C867       Br874   1.922       .  S
C868        C869   1.406       .  A
C868        H873   1.084       .  S
C869        C870   1.411       .  A
C870       Br871   1.923       .  S
C875        C876   1.407       .  A
C875        C880   1.397       .  A
C875        H882   1.084       .  S
C876        C877   1.413       .  A
C877        C878   1.397       .  A
C877       Br884   1.922       .  S
C878        C879   1.404       .  A
C878        H883   1.084       .  S
C879        C880   1.411       .  A
C880       Br881   1.923       .  S
C885        C886   1.405       .  A
C885        C890   1.399       .  A
C885        H892   1.084       .  S
C886        C887   1.412       .  A
C887        C888   1.402       .  A
C887       Br894   1.921   1_455  S
C888        C889   1.408       .  A
C888        H893   1.083       .  S
C889        C890   1.414       .  A
C890       Br891   1.922       .  S
C895        C896   1.408       .  A
C895        C900   1.400       .  A
C895        H902   1.083       .  S
C896        C897   1.413       .  A
C897        C898   1.395       .  A
C897       Br904   1.923       .  S
C898        C899   1.407       .  A
C898        H903   1.083       .  S
C899        C900   1.415       .  A
C900       Br901   1.923       .  S
C905        C906   1.404       .  A
C905        C910   1.403   1_565  A
C905        H912   1.083       .  S
C906        C907   1.413       .  A
C907        C908   1.399   1_565  A
C907       Br914   1.922       .  S
C908        C909   1.404       .  A
C908        H913   1.083       .  S
C909        C910   1.418       .  A
C910       Br911   1.922       .  S
C915        C916   1.408       .  A
C915        C920   1.402       .  A
C915        H922   1.083       .  S
C916        C917   1.414       .  A
C917        C918   1.395       .  A
C917       Br924   1.923       .  S
C918        C919   1.403       .  A
C918        H923   1.084       .  S
C919        C920   1.412       .  A
C920       Br921   1.921       .  S
C925        C926   1.402       .  A
C925        C930   1.401       .  A
C925        H932   1.084       .  S
C926        C927   1.408       .  A
C927        C928   1.396       .  A
C927       Br934   1.922       .  S
C928        C929   1.408       .  A
C928        H933   1.083       .  S
C929        C930   1.417       .  A
C930       Br931   1.922       .  S
C935        C936   1.405       .  A
C935        C940   1.401       .  A
C935        H942   1.083       .  S
C936        C937   1.408       .  A
C937        C938   1.396       .  A
C937       Br944   1.921       .  S
C938        C939   1.406       .  A
C938        H943   1.083       .  S
C939        C940   1.413       .  A
C940       Br941   1.921       .  S
C945        C946   1.406       .  A
C945        C950   1.396       .  A
C945        H952   1.084       .  S
C946        C947   1.411       .  A
C947        C948   1.400       .  A
C947       Br954   1.920       .  S
C948        C949   1.404       .  A
C948        H953   1.084       .  S
C949        C950   1.407       .  A
C950       Br951   1.921       .  S
C955        C956   1.407       .  A
C955        C960   1.401       .  A
C955        H962   1.083       .  S
C956        C957   1.417       .  A
C957        C958   1.398       .  A
C957       Br964   1.924       .  S
C958        C959   1.403       .  A
C958        H963   1.084       .  S
C959        C960   1.413       .  A
C960       Br961   1.922   1_565  S
C965        C966   1.402   1_455  A
C965        C970   1.399       .  A
C965        H972   1.084       .  S
C966        C967   1.407       .  A
C967        C968   1.400       .  A
C967       Br974   1.920       .  S
C968        C969   1.409       .  A
C968        H973   1.083       .  S
C969        C970   1.415   1_655  A
C970       Br971   1.921       .  S
C975        C976   1.402       .  A
C975        C980   1.400       .  A
C975        H982   1.084       .  S
C976        C977   1.408   1_655  A
C977        C978   1.397       .  A
C977       Br984   1.920       .  S
C978        C979   1.406   1_455  A
C978        H983   1.084       .  S
C979        C980   1.416       .  A
C980       Br981   1.921       .  S
C985        C986   1.404       .  A
C985        C990   1.398       .  A
C986        C987   1.411       .  A
C987        C988   1.398       .  A
C987       Br994   1.922       .  S
C988        C989   1.408       .  A
C988        H993   1.083       .  S
C989        C990   1.416       .  A
C990       Br991   1.923       .  S
C995        C996   1.407       .  A
C995       C1000   1.398       .  A
C995       H1002   1.083       .  S
C996        C997   1.415       .  A
C997        C998   1.396       .  A
C997      Br1004   1.923       .  S
C998        C999   1.402       .  A
C998       H1003   1.084       .  S
C999       C1000   1.408       .  A
C1000     Br1001   1.920       .  S
C1005      C1006   1.404       .  A
C1005      C1010   1.394       .  A
C1005      H1012   1.083       .  S
C1006      C1007   1.415       .  A
C1007      C1008   1.400       .  A
C1007     Br1014   1.921       .  S
C1008      C1009   1.403       .  A
C1008      H1013   1.084       .  S
C1009      C1010   1.413       .  A
C1010     Br1011   1.923       .  S
C1015      C1016   1.405       .  A
C1015      C1020   1.397       .  A
C1015      H1022   1.083       .  S
C1016      C1017   1.414       .  A
C1017      C1018   1.399       .  A
C1017     Br1024   1.923       .  S
C1018      C1019   1.407       .  A
C1018      H1023   1.083       .  S
C1019      C1020   1.416       .  A
C1020     Br1021   1.924       .  S
C1025      C1026   1.407       .  A
C1025      C1030   1.396       .  A
C1025      H1032   1.083       .  S
C1026      C1027   1.416       .  A
C1027      C1028   1.401       .  A
C1027     Br1034   1.923   1_455  S
C1028      C1029   1.406       .  A
C1028      H1033   1.083       .  S
C1029      C1030   1.413       .  A
C1030     Br1031   1.923       .  S
C1035      C1036   1.407       .  A
C1035      C1040   1.399       .  A
C1035      H1042   1.084       .  S
C1036      C1037   1.411       .  A
C1037      C1038   1.398       .  A
C1037     Br1044   1.920       .  S
C1038      C1039   1.403       .  A
C1038      H1043   1.084       .  S
C1039      C1040   1.407       .  A
C1040     Br1041   1.920       .  S
C1045      C1046   1.403       .  A
C1045      C1050   1.395       .  A
C1045      H1052   1.084       .  S
C1046      C1047   1.411       .  A
C1047      C1048   1.395       .  A
C1047     Br1054   1.922       .  S
C1048      C1049   1.404       .  A
C1048      H1053   1.084       .  S
C1049      C1050   1.412       .  A
C1050     Br1051   1.922       .  S
C1055      C1056   1.404       .  A
C1055      C1060   1.394       .  A
C1055      H1062   1.083       .  S
C1056      C1057   1.408       .  A
C1057      C1058   1.395       .  A
C1057     Br1064   1.921       .  S
C1058      C1059   1.405       .  A
C1058      H1063   1.083       .  S
C1059      C1060   1.411       .  A
C1060     Br1061   1.922       .  S
C1065      C1066   1.406       .  A
C1065      C1070   1.397       .  A
C1065      H1072   1.084       .  S
C1066      C1067   1.413       .  A
C1067      C1068   1.398       .  A
C1067     Br1074   1.921       .  S
C1068      C1069   1.404       .  A
C1068      H1073   1.084       .  S
C1069      C1070   1.410       .  A
C1070     Br1071   1.922       .  S
C1075      C1076   1.403       .  A
C1075      C1080   1.398       .  A
C1075      H1082   1.084       .  S
C1076      C1077   1.416       .  A
C1077      C1078   1.397       .  A
C1077     Br1084   1.923       .  S
C1078      C1079   1.401       .  A
C1078      H1083   1.084       .  S
C1079      C1080   1.414       .  A
C1080     Br1081   1.922       .  S
C1085      C1086   1.403       .  A
C1085      C1090   1.399       .  A
C1085      H1092   1.084       .  S
C1086      C1087   1.411       .  A
C1087      C1088   1.394       .  A
C1087     Br1094   1.923       .  S
C1088      C1089   1.405       .  A
C1088      H1093   1.083       .  S
C1089      C1090   1.416       .  A
C1090     Br1091   1.922       .  S
C1095      C1096   1.404       .  A
C1095      C1100   1.396       .  A
C1095      H1102   1.083       .  S
C1096      C1097   1.412       .  A
C1097      C1098   1.398       .  A
C1097     Br1104   1.922       .  S
C1098      C1099   1.405       .  A
C1098      H1103   1.083       .  S
C1099      C1100   1.411       .  A
C1100     Br1101   1.921       .  S
C1105      C1106   1.403       .  A
C1105      C1110   1.396   1_455  A
C1105      H1112   1.084       .  S
C1106      C1107   1.409       .  A
C1107      C1108   1.397   1_455  A
C1107     Br1114   1.921       .  S
C1108      C1109   1.406       .  A
C1108      H1113   1.084       .  S
C1109      C1110   1.411       .  A
C1110     Br1111   1.922       .  S
C1115      C1116   1.408       .  A
C1115      C1120   1.399       .  A
C1115      H1122   1.083       .  S
C1116      C1117   1.415       .  A
C1117      C1118   1.394       .  A
C1117     Br1124   1.923       .  S
C1118      C1119   1.403       .  A
C1118      H1123   1.083       .  S
C1119      C1120   1.412       .  A
C1120     Br1121   1.923       .  S
C1125      C1126   1.406   1_565  A
C1125      C1130   1.398       .  A
C1125      H1132   1.083       .  S
C1126      C1127   1.418       .  A
C1127      C1128   1.401       .  A
C1127     Br1134   1.922       .  S
C1128      C1129   1.401       .  A
C1128      H1133   1.084       .  S
C1129      C1130   1.412   1_545  A
C1130     Br1131   1.922       .  S
C1135      C1136   1.406   1_565  A
C1135      C1140   1.398       .  A
C1135      H1142   1.083       .  S
C1136      C1137   1.416       .  A
C1137      C1138   1.401       .  A
C1137     Br1144   1.922       .  S
C1138      C1139   1.403       .  A
C1138      H1143   1.083       .  S
C1139      C1140   1.410   1_545  A
C1140     Br1141   1.921       .  S
C1145      C1146   1.401       .  A
C1145      C1150   1.398       .  A
C1145      H1152   1.084       .  S
C1146      C1147   1.410       .  A
C1147      C1148   1.397       .  A
C1147     Br1154   1.921       .  S
C1148      C1149   1.405       .  A
C1148      H1153   1.084       .  S
C1149      C1150   1.415       .  A
C1150     Br1151   1.922       .  S
C1155      C1156   1.405       .  A
C1155      C1160   1.401       .  A
C1155      H1162   1.083       .  S
C1156      C1157   1.415       .  A
C1157      C1158   1.398       .  A
C1157     Br1164   1.923       .  S
C1158      C1159   1.403       .  A
C1158      H1163   1.084       .  S
C1159      C1160   1.414       .  A
C1160     Br1161   1.921       .  S
C1165      C1166   1.403       .  A
C1165      C1170   1.397       .  A
C1165      H1172   1.087       .  S
C1166      C1167   1.410       .  A
C1167      C1168   1.399       .  A
C1167     Br1174   1.920       .  S
C1168      C1169   1.406       .  A
C1168      H1173   1.086       .  S
C1169      C1170   1.414       .  A
C1170     Br1171   1.922       .  S
C1175      C1176   1.404       .  A
C1175      C1180   1.401       .  A
C1175      H1182   1.084       .  S
C1176      C1177   1.411       .  A
C1177      C1178   1.396       .  A
C1177     Br1184   1.922       .  S
C1178      C1179   1.406       .  A
C1178      H1183   1.083       .  S
C1179      C1180   1.417       .  A
C1180     Br1181   1.923   1_565  S
C1185      C1186   1.405       .  A
C1185      C1190   1.393       .  A
C1185      H1192   1.083       .  S
C1186      C1187   1.417       .  A
C1187      C1188   1.402       .  A
C1187     Br1194   1.921       .  S
C1188      C1189   1.403       .  A
C1188      H1193   1.084       .  S
C1189      C1190   1.410       .  A
C1195      C1196   1.404       .  A
C1195      C1200   1.397       .  A
C1195      H1202   1.084       .  S
C1196      C1197   1.415       .  A
C1197      C1198   1.397       .  A
C1197     Br1204   1.922       .  S
C1198      C1199   1.402       .  A
C1198      H1203   1.084       .  S
C1199      C1200   1.413       .  A
C1200     Br1201   1.922       .  S
C1205      C1206   1.403       .  A
C1205      C1210   1.396       .  A
C1205      H1212   1.084       .  S
C1206      C1207   1.411       .  A
C1207      C1208   1.398       .  A
C1207     Br1214   1.922       .  S
C1208      C1209   1.407       .  A
C1208      H1213   1.084       .  S
C1209      C1210   1.415       .  A
C1210     Br1211   1.923       .  S
C1215      C1216   1.407       .  A
C1215      C1220   1.398   1_655  A
C1215      H1222   1.083       .  S
C1216      C1217   1.415       .  A
C1217      C1218   1.396   1_655  A
C1217     Br1224   1.923       .  S
C1218      C1219   1.403       .  A
C1218      H1223   1.084       .  S
C1219      C1220   1.410       .  A
C1220     Br1221   1.921       .  S
