geometry optimzed in LAMMPS
_audit_creation_date              2020-12-01 
_audit_creation_method            'lammps2cif' 
_symmetry_space_group_name_H-M    'P1' 
_symmetry_Int_Tables_number       1 
_symmetry_cell_setting            triclinic 
loop_ 
_symmetry_equiv_pos_as_xyz 
  x,y,z 
_cell_length_a                    75.3757287 
_cell_length_b                    75.21812286308064 
_cell_length_c                    43.864566287730796 
_cell_angle_alpha                 90.4254887237479 
_cell_angle_beta                  90.18467304582458 
_cell_angle_gamma                 119.87002562059926 
loop_ 
_atom_site_label 
_atom_site_type_symbol 
_atom_site_fract_x 
_atom_site_fract_y 
_atom_site_fract_z 
_atom_site_charge 
O1          O  0.99409099  0.40944552  0.28517735    -0.57000
C2          C  0.00846231  0.42613200  0.18431375     0.75600
O3          O  0.02643930  0.47092558  0.25273565    -0.58100
C4          C  0.00540624  0.41847991  0.30827125     0.75600
C5          C  0.05173208  0.42737709  0.23463122     0.78000
Cd6        Cd  0.01882234  0.43484393  0.24756992     1.37500
O7          O  0.99690646  0.41387207  0.20475182    -0.57000
O8          O  0.03307945  0.41350196  0.23595948    -0.55800
C9          C  0.00783469  0.46638776  0.24910797     0.78000
O10         O  0.05617040  0.44533926  0.24346229    -0.58200
O11         O  0.02441283  0.44214403  0.19353760    -0.56600
O12         O  0.02262896  0.43405781  0.30263381    -0.56600
O13         O  0.99497109  0.44758757  0.24498692    -0.55800
O14         O  0.00155535  0.58194407  0.29363699    -0.57000
C15         C  0.98865806  0.57740977  0.19199209     0.75600
O16         O  0.96596554  0.52564596  0.24690586    -0.58100
C17         C  0.99039475  0.56967773  0.31438402     0.75600
C18         C  0.94949276  0.57634977  0.27567505     0.78000
Cd19       Cd  0.97627248  0.56262181  0.25341381     1.37500
O20         O  0.00062054  0.58587694  0.21468182    -0.57000
O21         O  0.96822060  0.58808824  0.26957235    -0.55800
C22         C  0.98449074  0.52954843  0.24914306     0.78000
O23         O  0.94159846  0.55762117  0.26720409    -0.58200
O24         O  0.97064946  0.56334852  0.19831763    -0.56600
O25         O  0.97375395  0.55408932  0.30605034    -0.56600
O26         O  0.99796114  0.54817225  0.25295377    -0.55800
O27         O  0.99494842  0.40933932  0.45869493    -0.57000
C28         C  0.99030533  0.41842975  0.05500077     0.75600
O29         O  0.97036158  0.44565512  0.99106970    -0.58100
C30         C  0.98296328  0.40610647  0.43623541     0.75600
C31         C  0.94436301  0.37649227  0.01355229     0.78000
Cd32       Cd  0.97617289  0.41571012  0.99418695     1.37500
O33         O  0.00096814  0.41753562  0.03310028    -0.57000
O34         O  0.96264764  0.38066428  0.00912095    -0.55800
C35         C  0.98250786  0.45386621  0.49415279     0.78000
O36         O  0.93950860  0.38967050  0.00478338    -0.58200
O37         O  0.97411954  0.41872108  0.04800385    -0.56600
O38         O  0.96548377  0.40366178  0.44270940    -0.56600
O39         O  0.99544444  0.44780189  0.49437531    -0.55800
O40         O  0.00217247  0.58271931  0.46250282    -0.57000
C41         C  0.01844571  0.59116700  0.06665081     0.75600
O42         O  0.03235542  0.55572193  0.50416806    -0.58100
C43         C  0.01325224  0.58122044  0.44177938     0.75600
C44         C  0.05545145  0.62561098  0.48808295     0.78000
Cd45       Cd  0.02528634  0.58467269  0.50329533     1.37500
O46         O  0.00748087  0.58970612  0.04359937    -0.57000
O47         O  0.03652919  0.61963252  0.49037905    -0.55800
C48         C  0.01345665  0.54204783  0.50223170     0.78000
O49         O  0.06139829  0.61320868  0.49660783    -0.58200
O50         O  0.03578317  0.59305616  0.06081347    -0.56600
O51         O  0.02915680  0.58083054  0.45027111    -0.56600
O52         O  0.00862136  0.55394614  0.99886540    -0.55800
O53         O  0.33397798  0.25156723  0.36648668    -0.57000
C54         C  0.34657647  0.25077213  0.26851796     0.75600
O55         O  0.39590424  0.28248994  0.32017612    -0.58100
C56         C  0.34560066  0.25572740  0.38966797     0.75600
C57         C  0.35204777  0.21189371  0.33029983     0.78000
Cd58       Cd  0.35985909  0.25355858  0.32971477     1.37500
O59         O  0.33540885  0.25097975  0.29014223    -0.57000
O60         O  0.33848363  0.21688073  0.32624434    -0.55800
C61         C  0.38947761  0.29485678  0.31379787     0.78000
O62         O  0.37021616  0.22662416  0.33512432    -0.58200
O63         O  0.36279070  0.25070391  0.27594671    -0.56600
O64         O  0.36379521  0.25976310  0.38451951    -0.56600
O65         O  0.37082658  0.28875638  0.31922716    -0.55800
O66         O  0.33917916  0.08361416  0.29505272    -0.57000
C67         C  0.33095515  0.08524174  0.39713437     0.75600
O68         O  0.30909252  0.11112051  0.33336072    -0.58100
C69         C  0.32671152  0.08191363  0.27399864     0.75600
C70         C  0.28836428  0.04017861  0.35047825     0.78000
Cd71       Cd  0.31701532  0.08260951  0.33685425     1.37500
O72         O  0.34196681  0.08522280  0.37508851    -0.57000
O73         O  0.30676442  0.04671198  0.34249580    -0.55800
C74         C  0.32786579  0.12517078  0.33554574     0.78000
O75         O  0.28211271  0.05314149  0.34930633    -0.58200
O76         O  0.31435869  0.08485244  0.39054159    -0.56600
O77         O  0.30945611  0.07922051  0.28251911    -0.56600
O78         O  0.34077533  0.11918624  0.33874876    -0.55800
O79         O  0.33886190  0.08719734  0.12500110    -0.57000
C80         C  0.34744278  0.09872470  0.02336413     0.75600
O81         O  0.36993969  0.14622954  0.08835846    -0.58100
C82         C  0.35104608  0.09716770  0.14688124     0.75600
C83         C  0.38974517  0.09543375  0.07471109     0.78000
Cd84       Cd  0.36133946  0.10959615  0.08484163     1.37500
O85         O  0.33639863  0.08778247  0.04526157    -0.57000
O86         O  0.37122483  0.08403039  0.08222370    -0.55800
C87         C  0.35113785  0.14155745  0.08852968     0.78000
O88         O  0.39624744  0.11468168  0.07363400    -0.58200
O89         O  0.36431892  0.11445218  0.03049367    -0.56600
O90         O  0.36817582  0.11243620  0.13969939    -0.56600
O91         O  0.33805646  0.12261965  0.08723739    -0.55800
O92         O  0.33479182  0.25628141  0.04048999    -0.57000
C93         C  0.32427576  0.24331609  0.14134349     0.75600
O94         O  0.27585981  0.22364479  0.08670404    -0.58100
C95         C  0.32350259  0.24599950  0.01803471     0.75600
C96         C  0.32455982  0.20214460  0.08139823     0.78000
Cd97       Cd  0.31228685  0.23254953  0.07958731     1.37500
O98         O  0.33554026  0.25500361  0.12016322    -0.57000
O99         O  0.33708215  0.22124427  0.08177165    -0.55800
C100        C  0.28143083  0.24228100  0.09325969     0.78000
O101        O  0.30561222  0.19672634  0.07938647    -0.58200
O102        O  0.30814965  0.22705564  0.13336472    -0.56600
O103        O  0.30670842  0.23007344  0.02451142    -0.56600
O104        O  0.30003457  0.25557986  0.08908025    -0.55800
O105        O  0.25875705  0.91727936  0.13284208    -0.57000
C106        C  0.25533004  0.90249604  0.23529327     0.75600
O107        O  0.22976354  0.85705244  0.16971548    -0.58100
C108        C  0.26042811  0.90742897  0.11030981     0.75600
C109        C  0.29974883  0.90372892  0.18280104     0.78000
Cd110      Cd  0.25840372  0.89356779  0.17249740     1.37500
O111        O  0.25530354  0.91424618  0.21445350    -0.57000
O112        O  0.29430231  0.91701231  0.17859829    -0.55800
C113        C  0.21612719  0.86238236  0.17150291     0.78000
O114        O  0.28592862  0.88491318  0.18032731    -0.58200
O115        O  0.25715819  0.88738424  0.22662253    -0.56600
O116        O  0.26202095  0.89185178  0.11688187    -0.56600
O117        O  0.22260668  0.88145863  0.17256968    -0.55800
O118        O  0.07975712  0.74897473  0.20517697    -0.57000
C119        C  0.08681067  0.76303151  0.10562269     0.75600
O120        O  0.06173592  0.78935601  0.15615445    -0.58100
C121        C  0.07883232  0.75889851  0.22814384     0.75600
C122        C  0.12823087  0.80412875  0.17055110     0.78000
Cd123      Cd  0.08486829  0.77509790  0.16694693     1.37500
O124        O  0.08586016  0.75162303  0.12765167    -0.57000
O125        O  0.12086125  0.78494761  0.16829476    -0.55800
C126        C  0.04668522  0.77164241  0.14981537     0.78000
O127        O  0.11524072  0.81029588  0.17168264    -0.58200
O128        O  0.08707525  0.77953579  0.11246584    -0.56600
O129        O  0.07923638  0.77561764  0.22239294    -0.56600
O130        O  0.04893852  0.75633002  0.15500720    -0.55800
O131        O  0.08205538  0.74775654  0.45249982    -0.57000
C132        C  0.09118763  0.74489248  0.35457787     0.75600
O133        O  0.14361736  0.77323692  0.41321610    -0.58100
C134        C  0.09229902  0.74724383  0.47530955     0.75600
C135        C  0.09662138  0.70453347  0.43046930     0.78000
Cd136      Cd  0.10626536  0.74595618  0.41600181     1.37500
O137        O  0.08284822  0.74772660  0.37782425    -0.57000
O138        O  0.08372870  0.70910224  0.42000283    -0.55800
C139        C  0.14014197  0.78790190  0.41876376     0.78000
O140        O  0.11518959  0.71894592  0.43138076    -0.58200
O141        O  0.10587851  0.74159507  0.35991610    -0.56600
O142        O  0.10846298  0.74667437  0.46983479    -0.56600
O143        O  0.12156052  0.78278983  0.42236118    -0.55800
O144        O  0.25993554  0.91820337  0.46352773    -0.57000
C145        C  0.24397723  0.91092022  0.36425608     0.75600
O146        O  0.19824063  0.89003942  0.42816070    -0.58100
C147        C  0.25104519  0.92089935  0.48622406     0.75600
C148        C  0.24880043  0.95878941  0.40502115     0.78000
Cd149      Cd  0.23544003  0.91730240  0.42483770     1.37500
O150        O  0.25564358  0.91144352  0.38582996    -0.57000
O151        O  0.26060906  0.95181095  0.41119173    -0.55800
C152        C  0.20192849  0.87521195  0.42650606     0.78000
O153        O  0.23000559  0.94733568  0.41198498    -0.58200
O154        O  0.22863964  0.91263268  0.37157274    -0.56600
O155        O  0.23573369  0.92305009  0.48003969    -0.56600
O156        O  0.22065388  0.88025942  0.42536011    -0.55800
O157        O  0.08879952  0.33918284  0.20892177    -0.57000
C158        C  0.09501532  0.35133417  0.10909496     0.75600
O159        O  0.11777968  0.39978978  0.18170920    -0.58100
C160        C  0.09997973  0.35018332  0.23104394     0.75600
C161        C  0.14258215  0.35369498  0.16641752     0.78000
Cd162      Cd  0.11059197  0.36373271  0.17022342     1.37500
O163        O  0.08620512  0.33980285  0.13170121    -0.57000
O164        O  0.12382063  0.34056347  0.16936878    -0.55800
C165        C  0.09866349  0.39359413  0.18335483     0.78000
O166        O  0.14699602  0.37240850  0.16484630    -0.58200
O167        O  0.11037724  0.36878947  0.11515006    -0.56600
O168        O  0.11610122  0.36667796  0.22438569    -0.56600
O169        O  0.08653466  0.37482213  0.17743508    -0.55800
O170        O  0.25761410  0.33741569  0.12645466    -0.57000
C171        C  0.24541858  0.32482473  0.22743690     0.75600
O172        O  0.19653166  0.30559462  0.16703912    -0.58100
C173        C  0.24559101  0.32770978  0.10424841     0.75600
C174        C  0.24169187  0.28171018  0.15067471     0.78000
Cd175      Cd  0.23284061  0.31368114  0.16477715     1.37500
O176        O  0.25511212  0.33675593  0.20560060    -0.57000
O177        O  0.25478437  0.29946234  0.16013758    -0.55800
C178        C  0.20119794  0.32439301  0.16621277     0.78000
O179        O  0.22307540  0.27749293  0.15013686    -0.58200
O180        O  0.23099565  0.30708369  0.22001818    -0.56600
O181        O  0.22816122  0.31294868  0.11106269    -0.56600
O182        O  0.22011925  0.33742723  0.16525773    -0.55800
O183        O  0.25191241  0.33798713  0.37778011    -0.57000
C184        C  0.25399038  0.34642597  0.47552912     0.75600
O185        O  0.28116871  0.39795794  0.42910737    -0.58100
C186        C  0.25326946  0.34913269  0.35528554     0.75600
C187        C  0.21057223  0.35315700  0.42068659     0.78000
Cd188      Cd  0.25257787  0.36191347  0.41724515     1.37500
O189        O  0.25073570  0.33533865  0.45180362    -0.57000
O190        O  0.21610349  0.33985508  0.42245496    -0.55800
C191        C  0.29471899  0.39257170  0.42684546     0.78000
O192        O  0.22490578  0.37163255  0.41724498    -0.58200
O193        O  0.25628324  0.36411210  0.47170029    -0.56600
O194        O  0.25468057  0.36628268  0.36176312    -0.56600
O195        O  0.28849275  0.37439246  0.41764526    -0.55800
O196        O  0.08063294  0.33897696  0.46062887    -0.57000
C197        C  0.08526564  0.33001928  0.35865606     0.75600
O198        O  0.10987603  0.30896989  0.42230172    -0.58100
C199        C  0.07996834  0.32746627  0.48228392     0.75600
C200        C  0.04084686  0.28606902  0.40055964     0.78000
Cd201      Cd  0.08121721  0.31631755  0.41951921     1.37500
O202        O  0.08418685  0.34099543  0.38014751    -0.57000
O203        O  0.04584737  0.30420520  0.40871439    -0.55800
C204        C  0.12362345  0.32780306  0.41965607     0.78000
O205        O  0.05371614  0.28016982  0.40629843    -0.58200
O206        O  0.08457029  0.31343182  0.36607924    -0.56600
O207        O  0.07853675  0.31049683  0.47448095    -0.56600
O208        O  0.11733609  0.34052107  0.41730096    -0.55800
O209        O  0.42026852  0.41855570  0.28628189    -0.57000
C210        C  0.43042159  0.41476687  0.18492363     0.75600
O211        O  0.47853578  0.44584730  0.24490820    -0.58100
C212        C  0.43139938  0.41842366  0.30818739     0.75600
C213        C  0.43187683  0.37559787  0.26026099     0.78000
Cd214      Cd  0.44278082  0.41698536  0.24743304     1.37500
O215        O  0.41947529  0.41550666  0.20644103    -0.57000
O216        O  0.41932287  0.38121163  0.25176182    -0.55800
C217        C  0.47325547  0.45953963  0.24688143     0.78000
O218        O  0.45082465  0.38918676  0.25984046    -0.58200
O219        O  0.44633105  0.41416950  0.19289779    -0.56600
O220        O  0.44757399  0.41815033  0.30124226    -0.56600
O221        O  0.45427795  0.45314918  0.24926217    -0.55800
O222        O  0.58754219  0.58993421  0.28962809    -0.57000
C223        C  0.57351591  0.58486464  0.18830240     0.75600
O224        O  0.52815770  0.56063557  0.25239049    -0.58100
C225        C  0.57778592  0.59208529  0.31165164     0.75600
C226        C  0.57736056  0.62993471  0.23303209     0.78000
Cd227      Cd  0.56428340  0.58888806  0.24970336     1.37500
O228        O  0.58538239  0.58542333  0.20961212    -0.57000
O229        O  0.58937841  0.62343106  0.24047773    -0.55800
C230        C  0.53327690  0.54679808  0.25084126     0.78000
O231        O  0.55829055  0.61801998  0.23773103    -0.58200
O232        O  0.55745058  0.58504729  0.19625291    -0.56600
O233        O  0.56229929  0.59374892  0.30462030    -0.56600
O234        O  0.55224788  0.55298167  0.24930970    -0.55800
O235        O  0.58647207  0.58796053  0.03904803    -0.57000
C236        C  0.59004442  0.58135940  0.43922201     0.75600
O237        O  0.61758147  0.55866027  0.01070143    -0.58100
C238        C  0.58672779  0.57654918  0.06024196     0.75600
C239        C  0.54631782  0.53391908  0.49730177     0.78000
Cd240      Cd  0.58947304  0.56644417  0.99818062     1.37500
O241        O  0.58738938  0.59024752  0.46212644    -0.57000
O242        O  0.55202223  0.55272662  0.50101494    -0.55800
C243        C  0.63115781  0.57762140  0.01165746     0.78000
O244        O  0.56182192  0.52958464  0.99170739    -0.58200
O245        O  0.59275778  0.56633511  0.44489349    -0.56600
O246        O  0.58783673  0.56095018  0.05211103    -0.56600
O247        O  0.62539268  0.59012823  0.00359008    -0.55800
O248        O  0.41911131  0.41735269  0.03590231    -0.57000
C249        C  0.42105021  0.42788384  0.43626578     0.75600
O250        O  0.38932057  0.44764835  0.48430464    -0.58100
C251        C  0.41570814  0.42603694  0.05831562     0.75600
C252        C  0.45951173  0.47119290  0.50086205     0.78000
Cd253      Cd  0.41693147  0.43905187  0.49673578     1.37500
O254        O  0.41968706  0.41619352  0.45814919    -0.57000
O255        O  0.45469074  0.45303669  0.99282586    -0.55800
C256        C  0.37675313  0.42911876  0.47652662     0.78000
O257        O  0.44531294  0.47575668  0.49974079    -0.58200
O258        O  0.42143695  0.44444717  0.44320813    -0.56600
O259        O  0.41215905  0.44041870  0.05199044    -0.56600
O260        O  0.38227647  0.41602512  0.48169664    -0.55800
O261        O  0.41634197  0.00535892  0.46984447    -0.57000
C262        C  0.42869655  0.00534874  0.07035782     0.75600
O263        O  0.47063781  0.02494492  0.00468540    -0.58100
C264        C  0.42650015  0.01599999  0.44718902     0.75600
C265        C  0.42482422  0.04841494  0.02611148     0.78000
Cd266      Cd  0.43492884  0.01783863  0.00857617     1.37500
O267        O  0.41422873  0.99593429  0.05092395    -0.57000
O268        O  0.41190730  0.02939216  0.02456027    -0.55800
C269        C  0.47143309  0.01563537  0.50832014     0.78000
O270        O  0.44288741  0.05408493  0.01675881    -0.58200
O271        O  0.44562959  0.01959968  0.06055139    -0.56600
O272        O  0.44281013  0.03267473  0.45324606    -0.56600
O273        O  0.45238126  0.00357915  0.51004463    -0.55800
O274        O  0.58264915  0.99297910  0.46187088    -0.57000
C275        C  0.57477652  0.98371901  0.06332764     0.75600
O276        O  0.52206253  0.96502141  0.50526114    -0.58100
C277        C  0.57078744  0.98394945  0.43926003     0.75600
C278        C  0.55958161  0.93382856  0.48353224     0.78000
Cd279      Cd  0.55733399  0.96978229  0.49990586     1.37500
O280        O  0.58375828  0.99435178  0.04005016    -0.57000
O281        O  0.57486449  0.95041078  0.49275419    -0.55800
C282        C  0.52832319  0.98421084  0.50486559     0.78000
O283        O  0.54214827  0.93266448  0.48489181    -0.58200
O284        O  0.55891619  0.96645173  0.05828420    -0.56600
O285        O  0.55307218  0.96944536  0.44534152    -0.56600
O286        O  0.54512859  0.99249015  0.00098039    -0.55800
O287        O  0.58356151  0.99440253  0.28957659    -0.57000
C288        C  0.59037256  0.00873434  0.19023053     0.75600
O289        O  0.55974700  0.02981716  0.24846335    -0.58100
C290        C  0.58416308  0.00546591  0.31215945     0.75600
C291        C  0.62729921  0.05004972  0.26845439     0.78000
Cd292      Cd  0.58683074  0.02001270  0.25157339     1.37500
O293        O  0.58703357  0.99667815  0.21238176    -0.57000
O294        O  0.62193347  0.03162562  0.26169520    -0.55800
C295        C  0.54512478  0.01128010  0.24799628     0.78000
O296        O  0.61438973  0.05595752  0.26312088    -0.58200
O297        O  0.59354167  0.02652710  0.19705453    -0.56600
O298        O  0.58553371  0.02254035  0.30613598    -0.56600
O299        O  0.55012990  0.99753712  0.24881524    -0.55800
O300        O  0.41536947  0.99850171  0.29915541    -0.57000
C301        C  0.42270033  0.98904921  0.19931067     0.75600
O302        O  0.44565114  0.96799749  0.26156416    -0.58100
C303        C  0.41352395  0.98712725  0.32166650     0.75600
C304        C  0.37828983  0.94342004  0.23966670     0.78000
Cd305      Cd  0.41717983  0.97527218  0.26020832     1.37500
O306        O  0.41665147  0.99729223  0.21919558    -0.57000
O307        O  0.38301696  0.96200150  0.24315258    -0.55800
C308        C  0.45936876  0.98692206  0.26069002     0.78000
O309        O  0.39087325  0.93819872  0.24996307    -0.58200
O310        O  0.42652513  0.97532559  0.20821529    -0.56600
O311        O  0.41230024  0.97006834  0.31520079    -0.56600
O312        O  0.45322375  0.99982796  0.26169160    -0.55800
O313        O  0.75031382  0.08598188  0.37274048    -0.57000
C314        C  0.75463160  0.09965866  0.27385760     0.75600
O315        O  0.72081333  0.11504534  0.32322909    -0.58100
C316        C  0.74724982  0.09514317  0.39488338     0.75600
C317        C  0.79169463  0.14275989  0.34024033     0.78000
Cd318      Cd  0.75053872  0.10964574  0.33429520     1.37500
O319        O  0.75632801  0.08939334  0.29552735    -0.57000
O320        O  0.78676908  0.12403362  0.33985730    -0.55800
C321        C  0.70861113  0.09578580  0.32023144     0.78000
O322        O  0.77709027  0.14669356  0.33810864    -0.58200
O323        O  0.75187943  0.11446169  0.28090502    -0.56600
O324        O  0.74475029  0.11014954  0.38817197    -0.56600
O325        O  0.71586283  0.08413049  0.32592477    -0.55800
O326        O  0.92030611  0.25783293  0.29163997    -0.57000
C327        C  0.91825970  0.24487416  0.39302082     0.75600
O328        O  0.89157318  0.19811805  0.33038293    -0.58100
C329        C  0.92077198  0.24731504  0.26907892     0.75600
C330        C  0.96160118  0.24409209  0.34169065     0.78000
Cd331      Cd  0.92009407  0.23424547  0.33105491     1.37500
O332        O  0.91794217  0.25631853  0.37191529    -0.57000
O333        O  0.95601682  0.25689154  0.33451364    -0.55800
C334        C  0.87791229  0.20337111  0.33276714     0.78000
O335        O  0.94773920  0.22522854  0.34108375    -0.58200
O336        O  0.91961552  0.22946117  0.38468176    -0.56600
O337        O  0.92180199  0.23139135  0.27543098    -0.56600
O338        O  0.88410769  0.22240533  0.33353252    -0.55800
O339        O  0.91869347  0.25909433  0.11905302    -0.57000
C340        C  0.90818418  0.26046561  0.01883748     0.75600
O341        O  0.85831125  0.22968530  0.08144807    -0.58100
C342        C  0.90815494  0.25915938  0.14165510     0.75600
C343        C  0.90219417  0.29947705  0.07375638     0.78000
Cd344      Cd  0.89439526  0.25842995  0.08008489     1.37500
O345        O  0.91892661  0.26022708  0.04116916    -0.57000
O346        O  0.91512621  0.29486500  0.08386662    -0.55800
C347        C  0.86337040  0.21583732  0.08040294     0.78000
O348        O  0.88393302  0.28473774  0.06999804    -0.58200
O349        O  0.89132962  0.25939783  0.02525265    -0.56600
O350        O  0.89194314  0.25966467  0.13539349    -0.56600
O351        O  0.88230049  0.22190072  0.07852947    -0.55800
O352        O  0.74823646  0.08609298  0.04374696    -0.57000
C353        C  0.76358831  0.09114384  0.14524896     0.75600
O354        O  0.77435294  0.05583082  0.09714503    -0.58100
C355        C  0.75680972  0.08147417  0.02256910     0.75600
C356        C  0.80339758  0.12875105  0.08049715     0.78000
Cd357      Cd  0.77134803  0.08672150  0.08408550     1.37500
O358        O  0.75142227  0.09059104  0.12443834    -0.57000
O359        O  0.78450764  0.12319757  0.08091533    -0.55800
C360        C  0.75527738  0.04545048  0.10338510     0.78000
O361        O  0.80796767  0.11451744  0.08155938    -0.58200
O362        O  0.77957304  0.09093526  0.13675454    -0.56600
O363        O  0.77150178  0.07870521  0.03045668    -0.56600
O364        O  0.74449642  0.05353423  0.09671410    -0.55800
O365        O  0.92981136  0.67905334  0.12831721    -0.57000
C366        C  0.92947349  0.68938405  0.02828903     0.75600
O367        O  0.89768917  0.70785126  0.08371860    -0.58100
C368        C  0.92960721  0.69006359  0.15041015     0.75600
C369        C  0.96777023  0.73577468  0.09624790     0.78000
Cd370      Cd  0.92714494  0.70143141  0.08921814     1.37500
O371        O  0.92786407  0.67789457  0.05054046    -0.57000
O372        O  0.96400512  0.71852908  0.08559335    -0.55800
C373        C  0.88398362  0.68904600  0.08621429     0.78000
O374        O  0.95243452  0.73822619  0.10094422    -0.58200
O375        O  0.93087821  0.70651490  0.03477282    -0.56600
O376        O  0.92770725  0.70534138  0.14355638    -0.56600
O377        O  0.89050879  0.67664146  0.09035446    -0.55800
O378        O  0.75117819  0.66915555  0.12564041    -0.57000
C379        C  0.75534768  0.66226656  0.02418736     0.75600
O380        O  0.78162603  0.63939814  0.08511750    -0.58100
C381        C  0.74959671  0.65730588  0.14732831     0.75600
C382        C  0.71195314  0.61843876  0.06735343     0.78000
Cd383      Cd  0.75304692  0.64742008  0.08458184     1.37500
O384        O  0.75635233  0.67323475  0.04718393    -0.57000
O385        O  0.71795612  0.63679747  0.07545956    -0.55800
C386        C  0.79562494  0.65823438  0.08460887     0.78000
O387        O  0.72438380  0.61178465  0.07178933    -0.58200
O388        O  0.75372224  0.64499919  0.02972434    -0.56600
O389        O  0.74890434  0.64064243  0.13968364    -0.56600
O390        O  0.78955150  0.67120395  0.08450360    -0.55800
O391        O  0.75356763  0.67165945  0.29670919    -0.57000
C392        C  0.76685267  0.68251396  0.39671287     0.75600
O393        O  0.81490533  0.70579614  0.33298826    -0.58100
C394        C  0.76219631  0.68338797  0.27423385     0.75600
C395        C  0.76951043  0.72809990  0.35236782     0.78000
Cd396      Cd  0.77792404  0.69601616  0.33559964     1.37500
O397        O  0.75502456  0.67185773  0.37485244    -0.57000
O398        O  0.75607370  0.70929910  0.35039888    -0.55800
C399        C  0.81120265  0.68735272  0.33501810     0.78000
O400        O  0.78739147  0.73311926  0.34299067    -0.58200
O401        O  0.78355442  0.69817273  0.38945223    -0.56600
O402        O  0.77722430  0.70095081  0.28061198    -0.56600
O403        O  0.79252943  0.67368972  0.33630064    -0.55800
O404        O  0.93173649  0.68016015  0.29962845    -0.57000
C405        C  0.92122215  0.66660936  0.40088579     0.75600
O406        O  0.87164370  0.64747274  0.34022067    -0.58100
C407        C  0.92133046  0.66859495  0.27736395     0.75600
C408        C  0.91454975  0.62210368  0.32804380     0.78000
Cd409      Cd  0.90794262  0.65594456  0.33812612     1.37500
O410        O  0.93171336  0.67844836  0.37940936    -0.57000
O411        O  0.92852841  0.64015276  0.33481859    -0.55800
C412        C  0.87572163  0.66593252  0.33666649     0.78000
O413        O  0.89625646  0.61883768  0.32808505    -0.58200
O414        O  0.90544891  0.65002801  0.39278599    -0.56600
O415        O  0.90531235  0.65205291  0.28390633    -0.56600
O416        O  0.89446567  0.67922676  0.33433329    -0.55800
O417        O  0.67641713  0.75439797  0.45575998    -0.57000
C418        C  0.68386871  0.76437821  0.35419434     0.75600
O419        O  0.70337381  0.81447051  0.41792490    -0.58100
C420        C  0.68842854  0.76461347  0.47765553     0.75600
C421        C  0.73083488  0.77040714  0.40328659     0.78000
Cd422      Cd  0.69780192  0.77835100  0.41506981     1.37500
O423        O  0.67348141  0.75341034  0.37654356    -0.57000
O424        O  0.71301055  0.75705875  0.41142978    -0.55800
C425        C  0.68436528  0.80852355  0.41468512     0.78000
O426        O  0.73452911  0.78890021  0.40217461    -0.58200
O427        O  0.69987048  0.78111884  0.36081646    -0.56600
O428        O  0.70474719  0.78076745  0.47030259    -0.56600
O429        O  0.67252940  0.78932557  0.41275038    -0.55800
O430        O  0.65504638  0.91732812  0.37538217    -0.57000
C431        C  0.64730091  0.90665688  0.47532943     0.75600
O432        O  0.59766863  0.87693511  0.43047952    -0.58100
C433        C  0.64426686  0.90634046  0.35298079     0.75600
C434        C  0.65047537  0.86381655  0.41388063     0.78000
Cd435      Cd  0.63434575  0.89186758  0.41472730     1.37500
O436        O  0.65716115  0.91801242  0.45298207    -0.57000
O437        O  0.66140602  0.88298110  0.41802715    -0.55800
C438        C  0.59789585  0.89389538  0.42769246     0.78000
O439        O  0.63141518  0.85712788  0.40959210    -0.58200
O440        O  0.63223005  0.88920808  0.46893917    -0.56600
O441        O  0.62870655  0.88930714  0.35957973    -0.56600
O442        O  0.61362579  0.90845639  0.41561921    -0.55800
O443        O  0.67014937  0.75216792  0.12587929    -0.57000
C444        C  0.66165367  0.75410627  0.22653940     0.75600
O445        O  0.63590670  0.77836143  0.16383152    -0.58100
C446        C  0.65784540  0.74875093  0.10375392     0.75600
C447        C  0.61726120  0.71050385  0.17874338     0.78000
Cd448      Cd  0.64695114  0.75210910  0.16582226     1.37500
O449        O  0.67267219  0.75516480  0.20386855    -0.57000
O450        O  0.63561970  0.71648786  0.17134863    -0.55800
C451        C  0.65410587  0.79356842  0.16417487     0.78000
O452        O  0.61145389  0.72377533  0.17722521    -0.58200
O453        O  0.64458297  0.75278245  0.22063905    -0.56600
O454        O  0.64044149  0.74629703  0.11076414    -0.56600
O455        O  0.66830777  0.78920032  0.16473791    -0.55800
O456        O  0.65796685  0.91684290  0.12493958    -0.57000
C457        C  0.67033480  0.92230228  0.22694957     0.75600
O458        O  0.69392099  0.89505952  0.16753154    -0.58100
C459        C  0.66961437  0.91683077  0.10390339     0.75600
C460        C  0.71163856  0.96339260  0.15385456     0.78000
Cd461      Cd  0.68262424  0.92105639  0.16549826     1.37500
O462        O  0.65820223  0.91897842  0.20459632    -0.57000
O463        O  0.69269250  0.95660827  0.15808908    -0.55800
C464        C  0.67571788  0.87981688  0.16705838     0.78000
O465        O  0.71792787  0.95061534  0.15743635    -0.58200
O466        O  0.68823668  0.92596469  0.22040001    -0.56600
O467        O  0.68647805  0.91843355  0.11213449    -0.56600
O468        O  0.66145841  0.88411064  0.16669662    -0.55800
C469        C  0.65910622  0.81550120  0.16434037     0.00700
C470        C  0.67977233  0.83101449  0.16199441    -0.11200
C471        C  0.68566752  0.85191404  0.16308581     0.02900
C472        C  0.67073717  0.85789888  0.16656592     0.00600
C473        C  0.65006907  0.84238877  0.16878016    -0.11100
C474        C  0.64416968  0.82149822  0.16766041     0.02800
H475        H  0.69154894  0.82685060  0.15932762     0.15800
H476        H  0.63828548  0.84654592  0.17143095     0.15800
C477        C  0.62267081  0.80669666  0.17024284     0.37400
C478        C  0.70714506  0.86675719  0.16036590     0.37300
N479        N  0.60542075  0.79487571  0.17228274    -0.42900
N480        N  0.72436386  0.87866209  0.15821934    -0.42900
C481        C  0.65010577  0.91252651  0.32064668     0.00700
C482        C  0.67069260  0.92638323  0.31392454    -0.11200
C483        C  0.67755324  0.93042028  0.28367820     0.02900
C484        C  0.66360705  0.92082358  0.25920128     0.00600
C485        C  0.64282095  0.90804053  0.26588581    -0.11100
C486        C  0.63601791  0.90369382  0.29609401     0.02800
H487        H  0.68169604  0.93343467  0.33235942     0.15800
H488        H  0.63190206  0.90064073  0.24742879     0.15800
C489        C  0.61449246  0.88986356  0.30097654     0.37400
C490        C  0.69904439  0.94431316  0.27856128     0.37300
N491        N  0.59722918  0.87872005  0.30469723    -0.42900
N492        N  0.71627654  0.95540715  0.27447675    -0.42900
C493        C  0.65626714  0.90897126  0.00779191     0.00700
C494        C  0.64020126  0.90253152  0.02875409    -0.11200
C495        C  0.64404116  0.90570895  0.06009868     0.02900
C496        C  0.66437378  0.91504741  0.07103928     0.00600
C497        C  0.68046180  0.92196812  0.04989270    -0.11100
C498        C  0.67659674  0.91915951  0.01851360     0.02800
H499        H  0.62451034  0.89471983  0.02062418     0.15800
H500        H  0.69619440  0.92935164  0.05790046     0.15800
C501        C  0.69366774  0.92577049  0.99804809     0.37400
C502        C  0.62676180  0.89854438  0.08026541     0.37300
N503        N  0.70733520  0.93104567  0.98162739    -0.42900
N504        N  0.61280532  0.89284143  0.09620892    -0.42900
C505        C  0.67599686  0.82292925  0.41332109     0.00700
C506        C  0.68733405  0.84282779  0.42565443    -0.11200
C507        C  0.67941106  0.85630326  0.42621961     0.02900
C508        C  0.65966683  0.85009907  0.41393476     0.00600
C509        C  0.64852720  0.83034491  0.40114998    -0.11100
C510        C  0.65642077  0.81690159  0.40058873     0.02800
H511        H  0.70228705  0.84775331  0.43558627     0.15800
H512        H  0.63356148  0.82536775  0.39121829     0.15800
C513        C  0.64413690  0.79716467  0.38594988     0.37400
C514        C  0.69168636  0.87611413  0.44065721     0.37300
N515        N  0.63429154  0.78137015  0.37416477    -0.42900
N516        N  0.70148183  0.89196037  0.45232934    -0.42900
C517        C  0.67768137  0.75349760  0.01001867     0.00700
C518        C  0.65682024  0.74517414  0.01643374    -0.11200
C519        C  0.64981888  0.74266401  0.04658283     0.02900
C520        C  0.66387594  0.74852494  0.07132162     0.00600
C521        C  0.68456386  0.75545656  0.06472473    -0.11100
C522        C  0.69149877  0.75790582  0.03453313     0.02800
H523        H  0.64601034  0.74147646  0.99781395     0.15800
H524        H  0.69553719  0.75950976  0.08319107     0.15800
C525        C  0.71279418  0.76451409  0.02935822     0.37400
C526        C  0.62814148  0.73430803  0.05108350     0.37300
N527        N  0.72981938  0.76956802  0.02531829    -0.42900
N528        N  0.61073363  0.72756449  0.05440475    -0.42900
C529        C  0.67807088  0.75879191  0.32160027     0.00700
C530        C  0.69323913  0.76916476  0.29948828    -0.11200
C531        C  0.68845148  0.76715641  0.26835554     0.02900
C532        C  0.66806602  0.75455677  0.25863208     0.00600
C533        C  0.65304522  0.74323265  0.28046144    -0.11100
C534        C  0.65787652  0.74504565  0.31169022     0.02800
H535        H  0.70891162  0.77953178  0.30657224     0.15800
H536        H  0.63734231  0.73323032  0.27312363     0.15800
C537        C  0.64163658  0.73332273  0.33288373     0.37400
C538        C  0.70447246  0.77943955  0.24716499     0.37300
N539        N  0.62857403  0.72382776  0.34976195    -0.42900
N540        N  0.71725922  0.78933836  0.23013954    -0.42900
C541        C  0.76414895  0.74250982  0.36751967     0.00700
C542        C  0.75408684  0.73634318  0.39555246    -0.11200
C543        C  0.74522509  0.74685493  0.40919900     0.02900
C544        C  0.74567465  0.76367822  0.39437822     0.00600
C545        C  0.75734910  0.77107513  0.36761213    -0.11100
C546        C  0.76676657  0.76070318  0.35427087     0.02800
H547        H  0.75260066  0.72276440  0.40649146     0.15800
H548        H  0.75796548  0.78405718  0.35602819     0.15800
C549        C  0.77778326  0.76812099  0.32612238     0.37400
C550        C  0.73524385  0.73970254  0.43821269     0.37300
N551        N  0.78674100  0.77408708  0.30363278    -0.42900
N552        N  0.72730330  0.73408168  0.46150613    -0.42900
C553        C  0.82766847  0.68179737  0.33579504     0.00700
C554        C  0.84730795  0.69588446  0.32540436    -0.11200
C555        C  0.86312122  0.69112259  0.32522988     0.02900
C556        C  0.85947571  0.67176550  0.33565828     0.00600
C557        C  0.83985067  0.65771989  0.34604702    -0.11100
C558        C  0.82413355  0.66255194  0.34652480     0.02800
H559        H  0.85031418  0.71065720  0.31707332     0.15800
H560        H  0.83681918  0.64296623  0.35451422     0.15800
C561        C  0.80484331  0.64764859  0.35950052     0.37400
C562        C  0.88275641  0.70638951  0.31366612     0.37300
N563        N  0.78948967  0.63567793  0.37013605    -0.42900
N564        N  0.89845304  0.71869966  0.30439980    -0.42900
C565        C  0.74967520  0.66319194  0.17999906     0.00700
C566        C  0.75767489  0.68401817  0.18754050    -0.11200
C567        C  0.76072829  0.69078986  0.21802179     0.02900
C568        C  0.75591239  0.67663888  0.24197348     0.00600
C569        C  0.74644697  0.65565593  0.23454425    -0.11100
C570        C  0.74323988  0.64884653  0.20402527     0.02800
H571        H  0.76220278  0.69522850  0.16954437     0.15800
H572        H  0.74220259  0.64452459  0.25261285     0.15800
C573        C  0.73319724  0.62703671  0.19822533     0.37400
C574        C  0.76861950  0.71235750  0.22398353     0.37300
N575        N  0.72501399  0.60952889  0.19374684    -0.42900
N576        N  0.77479153  0.72961521  0.22877698    -0.42900
C577        C  0.75725664  0.66977802  0.49278852     0.00700
C578        C  0.74593706  0.65406553  0.47137399    -0.11200
C579        C  0.74791860  0.65786420  0.43996339     0.02900
C580        C  0.76193791  0.67765824  0.42944579     0.00600
C581        C  0.77253797  0.69353017  0.45102118    -0.11100
C582        C  0.77024891  0.68980024  0.48237802     0.02800
H583        H  0.73567953  0.63867128  0.47923789     0.15800
H584        H  0.78305488  0.70891939  0.44340493     0.15800
C585        C  0.78251984  0.70650484  0.50314424     0.37400
C586        C  0.73592088  0.64100474  0.41928645     0.37300
N587        N  0.78097303  0.71914760  0.02417192    -0.42900
N588        N  0.72619040  0.62745792  0.40281394    -0.42900
C589        C  0.86140819  0.68144343  0.08470209     0.00700
C590        C  0.84761624  0.66045336  0.08974698    -0.11200
C591        C  0.82629384  0.65241464  0.08956111     0.02900
C592        C  0.81809757  0.66540155  0.08407897     0.00600
C593        C  0.83186872  0.68628754  0.07841303    -0.11100
C594        C  0.85316403  0.69433298  0.07864521     0.02800
H595        H  0.85348539  0.65017330  0.09432109     0.15800
H596        H  0.82600192  0.69657125  0.07382772     0.15800
C597        C  0.86604014  0.71589916  0.07258811     0.37400
C598        C  0.81333720  0.63091309  0.09597185     0.37300
N599        N  0.87631549  0.73319614  0.06772703    -0.42900
N600        N  0.80296637  0.61368666  0.10121574    -0.42900
C601        C  0.92947794  0.68179797  0.49715263     0.00700
C602        C  0.94295517  0.69602280  0.47605067    -0.11200
C603        C  0.94153484  0.69122036  0.44481625     0.02900
C604        C  0.92612859  0.67177196  0.43398759     0.00600
C605        C  0.91353588  0.65714442  0.45555678    -0.11100
C606        C  0.91497817  0.66196457  0.48672167     0.02800
H607        H  0.95430258  0.71123265  0.48390170     0.15800
H608        H  0.90174702  0.64206781  0.44797114     0.15800
C609        C  0.90009183  0.64683831  0.50691993     0.37400
C610        C  0.95565578  0.70694670  0.42466168     0.37300
N611        N  0.89670038  0.63299051  0.02393900    -0.42900
N612        N  0.96715068  0.71976997  0.40891832    -0.42900
C613        C  0.93078142  0.68520264  0.18283360     0.00700
C614        C  0.92322711  0.66471740  0.19104789    -0.11200
C615        C  0.92092021  0.65905408  0.22176015     0.02900
C616        C  0.92675055  0.67416193  0.24503031     0.00600
C617        C  0.93589669  0.69481105  0.23682718    -0.11100
C618        C  0.93773744  0.70043030  0.20612878     0.02800
H619        H  0.91806604  0.65293465  0.17348712     0.15800
H620        H  0.94053070  0.70651836  0.25442798     0.15800
C621        C  0.94630240  0.72192425  0.19943243     0.37400
C622        C  0.91205830  0.63753584  0.22859369     0.37300
N623        N  0.95300287  0.73915223  0.19426668    -0.42900
N624        N  0.90484737  0.62026758  0.23392092    -0.42900
C625        C  0.72503056  0.98509882  0.14415509     0.00700
C626        C  0.71779735  0.99886164  0.14886503    -0.11200
C627        C  0.72781233  0.01858552  0.13670997     0.02900
C628        C  0.74557236  0.02512378  0.11874252     0.00600
C629        C  0.75362928  0.01190874  0.11551338    -0.11100
C630        C  0.74351238  0.99201970  0.12789867     0.02800
H631        H  0.70393457  0.99408853  0.16182303     0.15800
H632        H  0.76741840  0.01681089  0.10234363     0.15800
C633        C  0.75187268  0.97876344  0.12208745     0.37400
C634        C  0.71952660  0.03184064  0.14364886     0.37300
N635        N  0.75860420  0.96815633  0.11732436    -0.42900
N636        N  0.71290930  0.04245098  0.14923417    -0.42900
C637        C  0.84811426  0.19357175  0.08103449     0.00700
C638        C  0.82975846  0.18618680  0.06463771    -0.11200
C639        C  0.81536659  0.16516482  0.06353214     0.02900
C640        C  0.81908289  0.15094785  0.07931079     0.00600
C641        C  0.83750652  0.15835215  0.09571641    -0.11100
C642        C  0.85192083  0.17942926  0.09680416     0.02800
H643        H  0.82682141  0.19683495  0.05211033     0.15800
H644        H  0.84040362  0.14773794  0.10840916     0.15800
C645        C  0.87004721  0.18628439  0.11548604     0.37400
C646        C  0.79720891  0.15857809  0.04508159     0.37300
N647        N  0.88455270  0.19192955  0.13053043    -0.42900
N648        N  0.78269539  0.15332533  0.03021351    -0.42900
C649        C  0.91960738  0.25278193  0.23674609     0.00700
C650        C  0.92812413  0.24627671  0.21371215    -0.11200
C651        C  0.92543617  0.24894357  0.18266707     0.02900
C652        C  0.91389162  0.25825820  0.17398928     0.00600
C653        C  0.90603234  0.26541984  0.19704986    -0.11100
C654        C  0.90874730  0.26280091  0.22803372     0.02800
H655        H  0.93649149  0.23855963  0.21995487     0.15800
H656        H  0.89714890  0.27260376  0.19085238     0.15800
C657        C  0.89885148  0.26921171  0.25012703     0.37400
C658        C  0.93354822  0.24072263  0.16036183     0.37300
N659        N  0.89074932  0.27428295  0.26763986    -0.42900
N660        N  0.93998088  0.23403826  0.14252243    -0.42900
C661        C  0.90914292  0.25272247  0.48823060     0.00700
C662        C  0.91951008  0.24236643  0.47976784    -0.11200
C663        C  0.92298179  0.23998794  0.44907911     0.02900
C664        C  0.91648110  0.24859429  0.42591388     0.00600
C665        C  0.90676616  0.25963506  0.43447432    -0.11100
C666        C  0.90280478  0.26152356  0.46521350     0.02800
H667        H  0.92431943  0.23545466  0.49717726     0.15800
H668        H  0.90159462  0.26621325  0.41705301     0.15800
C669        C  0.89225607  0.27262422  0.47237042     0.37400
C670        C  0.93304152  0.22835829  0.44228035     0.37300
N671        N  0.88372731  0.28145444  0.47800874    -0.42900
N672        N  0.94093808  0.21887957  0.43690189    -0.42900
C673        C  0.81362990  0.15894422  0.34157239     0.00700
C674        C  0.81968723  0.17796838  0.32816342    -0.11200
C675        C  0.84045251  0.19256592  0.32495307     0.02900
C676        C  0.85574170  0.18824894  0.33527232     0.00600
C677        C  0.84968636  0.16954716  0.34971140    -0.11100
C678        C  0.82892997  0.15506138  0.35328290     0.02800
H679        H  0.80818454  0.18117377  0.31906635     0.15800
H680        H  0.86122094  0.16634477  0.35868045     0.15800
C681        C  0.82388906  0.13658303  0.36974241     0.37400
C682        C  0.84553171  0.21144545  0.30968208     0.37300
N683        N  0.81996863  0.12186569  0.38307647    -0.42900
N684        N  0.84956968  0.22656167  0.29743541    -0.42900
C685        C  0.74755405  0.08924703  0.42712257     0.00700
C686        C  0.75473369  0.07563627  0.43375106    -0.11200
C687        C  0.75753596  0.07145872  0.46394428     0.02900
C688        C  0.75317753  0.08103580  0.48830559     0.00600
C689        C  0.74503822  0.09378318  0.48174471    -0.11100
C690        C  0.74216328  0.09793011  0.45166924     0.02800
H691        H  0.75865077  0.06856168  0.41531399     0.15800
H692        H  0.74149347  0.10113087  0.50023847     0.15800
C693        C  0.73378816  0.11130176  0.44700863     0.37400
C694        C  0.76449448  0.05698759  0.46922624     0.37300
N695        N  0.72704608  0.12199421  0.44333585    -0.42900
N696        N  0.76991423  0.04526667  0.47347084    -0.42900
C697        C  0.75963750  0.09167754  0.17816952     0.00700
C698        C  0.77132379  0.08750972  0.19906378    -0.11200
C699        C  0.76939822  0.08909785  0.23049944     0.02900
C700        C  0.75553052  0.09494553  0.24151055     0.00600
C701        C  0.74314846  0.09813386  0.22082788    -0.11100
C702        C  0.74499603  0.09649658  0.18941020     0.02800
H703        H  0.78239137  0.08341715  0.19087481     0.15800
H704        H  0.73225462  0.10240375  0.22927609     0.15800
C705        C  0.73227466  0.10073525  0.16953665     0.37400
C706        C  0.78277910  0.08601635  0.25070314     0.37300
N707        N  0.72206621  0.10418290  0.15370867    -0.42900
N708        N  0.79357907  0.08362799  0.26683548    -0.42900
C709        C  0.64728204  0.06310979  0.28385329     0.00700
C710        C  0.65985898  0.08376976  0.27599146    -0.11200
C711        C  0.67969201  0.09542598  0.28864638     0.02900
C712        C  0.68691619  0.08641730  0.31002203     0.00600
C713        C  0.67366972  0.06623072  0.31917008    -0.11100
C714        C  0.65423171  0.05458820  0.30635179     0.02800
H715        H  0.65459976  0.09049172  0.25894812     0.15800
H716        H  0.67880344  0.05915902  0.33584945     0.15800
C717        C  0.64188707  0.03375822  0.31677353     0.37400
C718        C  0.69260611  0.11598596  0.27780171     0.37300
N719        N  0.63228816  0.01707456  0.32519791    -0.42900
N720        N  0.70281042  0.13245119  0.26886886    -0.42900
C721        C  0.52319404  0.00565424  0.24811297     0.00700
C722        C  0.51775775  0.01943522  0.26078115    -0.11200
C723        C  0.49718461  0.01376601  0.26515723     0.02900
C724        C  0.48145138  0.99372408  0.25715777     0.00600
C725        C  0.48688056  0.98026150  0.24330935    -0.11100
C726        C  0.50740954  0.98611488  0.23822756     0.02800
H727        H  0.52963968  0.03452480  0.26816663     0.15800
H728        H  0.47500278  0.96522779  0.23569293     0.15800
C729        C  0.51162615  0.97203046  0.22150525     0.37400
C730        C  0.49287992  0.02875929  0.27869179     0.37300
N731        N  0.51471052  0.96068188  0.20771225    -0.42900
N732        N  0.48956607  0.04089634  0.28943765    -0.42900
C733        C  0.58188271  0.99080462  0.09513255     0.00700
C734        C  0.57606131  0.97591821  0.11788524    -0.11200
C735        C  0.57994948  0.98136082  0.14878621     0.02900
C736        C  0.58947535  0.00223957  0.15777318     0.00600
C737        C  0.59639506  0.01721406  0.13487953    -0.11100
C738        C  0.59290439  0.01173760  0.10383830     0.02800
H739        H  0.56801918  0.95980330  0.11154829     0.15800
H740        H  0.60405041  0.03331747  0.14123822     0.15800
C741        C  0.59995956  0.02796988  0.08176145     0.37400
C742        C  0.57318245  0.96498311  0.17055427     0.37300
N743        N  0.60577482  0.04111114  0.06426902    -0.42900
N744        N  0.56779979  0.95175264  0.18781652    -0.42900
C745        C  0.57679122  0.98950886  0.40702422     0.00700
C746        C  0.56744901  0.97406593  0.38449920    -0.11200
C747        C  0.57060090  0.97865778  0.35340590     0.02900
C748        C  0.58306385  0.99912998  0.34430951     0.00600
C749        C  0.59327276  0.01440678  0.36678129    -0.11100
C750        C  0.59038134  0.00977265  0.39790011     0.02800
H751        H  0.55720222  0.95835517  0.39119859     0.15800
H752        H  0.60311868  0.03018819  0.35998700     0.15800
C753        C  0.60042541  0.02632390  0.41979100     0.37400
C754        C  0.55975582  0.96234201  0.33138357     0.37300
N755        N  0.60843943  0.03960984  0.43732466    -0.42900
N756        N  0.55110909  0.94938679  0.31354420    -0.42900
C757        C  0.56286341  0.91764385  0.46972405     0.00700
C758        C  0.56319334  0.91646283  0.43775169    -0.11200
C759        C  0.57296206  0.90698118  0.42317536     0.02900
C760        C  0.58192733  0.89777535  0.44062159     0.00600
C761        C  0.57970391  0.89713348  0.47247641    -0.11100
C762        C  0.57068301  0.90734574  0.48709045     0.02800
H763        H  0.55755548  0.92464976  0.42417669     0.15800
H764        H  0.58687384  0.89046042  0.48617457     0.15800
C765        C  0.57108914  0.90852022  0.51996821     0.37400
C766        C  0.57493652  0.90813590  0.39041825     0.37300
N767        N  0.58725867  0.91955163  0.05279662    -0.42900
N768        N  0.57665395  0.90907156  0.36418022    -0.42900
C769        C  0.51418652  0.99276305  0.50672873     0.00700
C770        C  0.49033324  0.97221509  0.00026751    -0.11200
C771        C  0.47539923  0.97813877  0.99853656     0.02900
C772        C  0.48603293  0.00764405  0.50892578     0.00600
C773        C  0.50656079  0.02068259  0.50132174    -0.11100
C774        C  0.52061263  0.01360886  0.50030971     0.02800
H775        H  0.48586680  0.95614403  0.99615767     0.15800
H776        H  0.51172986  0.03666246  0.49569384     0.15800
C777        C  0.54141101  0.02816639  0.49211526     0.37400
C778        C  0.45485422  0.96260259  0.99016583     0.37300
N779        N  0.55807537  0.03991961  0.48564561    -0.42900
N780        N  0.43848101  0.95009499  0.98313966    -0.42900
C781        C  0.42037155  0.00875253  0.41517909     0.00700
C782        C  0.41116306  0.98767363  0.40889388    -0.11200
C783        C  0.40823572  0.98018439  0.37882282     0.02900
C784        C  0.41388472  0.99386770  0.35396540     0.00600
C785        C  0.42178569  0.01486244  0.36037637    -0.11100
C786        C  0.42533179  0.02238957  0.39052120     0.02800
H787        H  0.40733410  0.97704501  0.42758575     0.15800
H788        H  0.42614861  0.02562472  0.34178530     0.15800
C789        C  0.43433682  0.04421313  0.39547608     0.37400
C790        C  0.40022931  0.95845096  0.37450901     0.37300
N791        N  0.44161760  0.06169899  0.39953177    -0.42900
N792        N  0.39403959  0.94105033  0.37127736    -0.42900
C793        C  0.42641411  0.00045728  0.10321704     0.00700
C794        C  0.44321856  0.00164726  0.11903928    -0.11200
C795        C  0.44247409  0.99846786  0.15049615     0.02900
C796        C  0.42479386  0.99445893  0.16683845     0.00600
C797        C  0.40810012  0.99356513  0.15125361    -0.11100
C798        C  0.40870365  0.99637759  0.11962420     0.02800
H799        H  0.45702493  0.00504818  0.10671664     0.15800
H800        H  0.39438958  0.99023129  0.16373200     0.15800
C801        C  0.39129133  0.99580672  0.10487224     0.37400
C802        C  0.46024957  0.99998909  0.16566795     0.37300
N803        N  0.37729268  0.99538459  0.09321180    -0.42900
N804        N  0.47449336  0.00127764  0.17786171    -0.42900
C805        C  0.52405224  0.51801573  0.49757368     0.00700
C806        C  0.51852647  0.49898644  0.98146387    -0.11200
C807        C  0.49764889  0.48400479  0.98056698     0.02900
C808        C  0.48185750  0.48705389  0.50082512     0.00600
C809        C  0.48762975  0.50777921  0.49720668    -0.11100
C810        C  0.50830124  0.52311780  0.49541769     0.02800
H811        H  0.52948645  0.49609662  0.96972146     0.15800
H812        H  0.47592047  0.51207021  0.49526271     0.15800
C813        C  0.51267878  0.54388141  0.49047789     0.37400
C814        C  0.49174822  0.46546784  0.96319573     0.37300
N815        N  0.51616452  0.56050101  0.48642616    -0.42900
N816        N  0.48707157  0.45067820  0.94913799    -0.42900
C817        C  0.69198624  0.60655474  0.05104706     0.00700
C818        C  0.67850902  0.58570297  0.05691847    -0.11200
C819        C  0.65886272  0.57527824  0.04315346     0.02900
C820        C  0.65264437  0.58573315  0.02274395     0.00600
C821        C  0.66682623  0.60608657  0.01548209    -0.11100
C822        C  0.68606622  0.61649108  0.02936414     0.02800
H823        H  0.68294884  0.57781876  0.07317795     0.15800
H824        H  0.66261703  0.61431679  0.99949084     0.15800
C825        C  0.69929914  0.63761553  0.02089849     0.37400
C826        C  0.64517348  0.55430273  0.05156516     0.37300
N827        N  0.70960536  0.65457030  0.01411494    -0.42900
N828        N  0.63422920  0.53748657  0.05844903    -0.42900
C829        C  0.58572148  0.64993953  0.21736428     0.00700
C830        C  0.57858088  0.66361868  0.22378708    -0.11200
C831        C  0.58784653  0.68323272  0.21046047     0.02900
C832        C  0.60421016  0.68914190  0.18976863     0.00600
C833        C  0.61037463  0.67487676  0.18224699    -0.11100
C834        C  0.60150150  0.65564720  0.19576411     0.02800
H835        H  0.56641231  0.65935808  0.24017351     0.15800
H836        H  0.62272470  0.67897280  0.16622405     0.15800
C837        C  0.60903520  0.64206969  0.18681790     0.37400
C838        C  0.58115384  0.69734574  0.21989040     0.37300
N839        N  0.61519065  0.63129886  0.17974925    -0.42900
N840        N  0.57585036  0.70870735  0.22753053    -0.42900
C841        C  0.58358398  0.59194050  0.34414911     0.00700
C842        C  0.57634337  0.60006709  0.36677222    -0.11200
C843        C  0.57938234  0.59813336  0.39794424     0.02900
C844        C  0.58943201  0.58736575  0.40707675     0.00600
C845        C  0.59762162  0.58029249  0.38442237    -0.11100
C846        C  0.59494917  0.58255839  0.35338433     0.02800
H847        H  0.56791511  0.60765075  0.36011679     0.15800
H848        H  0.60571819  0.57234563  0.39095210     0.15800
C849        C  0.60313599  0.57400194  0.33176545     0.37400
C850        C  0.57135975  0.60672284  0.41979433     0.37300
N851        N  0.60975498  0.56712224  0.31457219    -0.42900
N852        N  0.56501259  0.61378290  0.43715027    -0.42900
C853        C  0.57802432  0.58419848  0.15552554     0.00700
C854        C  0.59044772  0.57608839  0.14683624    -0.11200
C855        C  0.59414284  0.57426290  0.11601068     0.02900
C856        C  0.58526519  0.58058024  0.09304393     0.00600
C857        C  0.57371132  0.58966373  0.10176915    -0.11100
C858        C  0.57004555  0.59153687  0.13261218     0.02800
H859        H  0.59704577  0.57084705  0.16413571     0.15800
H860        H  0.56705660  0.59482190  0.08444442     0.15800
C861        C  0.55837805  0.60145056  0.14004037     0.37400
C862        C  0.60755140  0.56630739  0.10875744     0.37300
N863        N  0.54909018  0.60941087  0.14626414    -0.42900
N864        N  0.61840906  0.56002571  0.10317753    -0.42900
C865        C  0.48840440  0.48194059  0.24702678     0.00700
C866        C  0.50905492  0.48839966  0.25281581    -0.11200
C867        C  0.52379735  0.50926665  0.25447469     0.02900
C868        C  0.51804551  0.52442600  0.25025752     0.00600
C869        C  0.49741583  0.51798042  0.24422740    -0.11100
C870        C  0.48268228  0.49708573  0.24237019     0.02800
H871        H  0.51373329  0.47708328  0.25650992     0.15800
H872        H  0.49277336  0.52931462  0.24041257     0.15800
C873        C  0.46197532  0.49186223  0.23472905     0.37400
C874        C  0.54463667  0.51446247  0.26106527     0.37300
N875        N  0.44544769  0.48784225  0.22848780    -0.42900
N876        N  0.56134282  0.51863967  0.26628094    -0.42900
C877        C  0.42529308  0.41534413  0.15211038     0.00700
C878        C  0.40973223  0.41977765  0.14466299    -0.11200
C879        C  0.40570687  0.42250571  0.11427364     0.02900
C880        C  0.41724065  0.42063723  0.09040234     0.00600
C881        C  0.43204814  0.41520002  0.09763409    -0.11100
C882        C  0.43627229  0.41269947  0.12795687     0.02800
H883        H  0.40095600  0.42163715  0.16267814     0.15800
H884        H  0.44103192  0.41373838  0.07954087     0.15800
C885        C  0.45230743  0.40785974  0.13329743     0.37400
C886        C  0.38942032  0.42686744  0.10826479     0.37300
N887        N  0.46521540  0.40405239  0.13749127    -0.42900
N888        N  0.37626051  0.43023219  0.10359437    -0.42900
C889        C  0.42629748  0.41871085  0.34064632     0.00700
C890        C  0.43392200  0.41034690  0.36220801    -0.11200
C891        C  0.43168143  0.41227103  0.39356020     0.02900
C892        C  0.42178080  0.42287435  0.40377976     0.00600
C893        C  0.41331667  0.43035546  0.38218703    -0.11100
C894        C  0.41543383  0.42832979  0.35089035     0.02800
H895        H  0.44210558  0.40275589  0.35460692     0.15800
H896        H  0.40545091  0.43825828  0.38977567     0.15800
C897        C  0.40751639  0.43751673  0.33005010     0.37400
C898        C  0.44086249  0.40442776  0.41453478     0.37300
N899        N  0.40125311  0.44494798  0.31333828    -0.42900
N900        N  0.44830287  0.39817344  0.43125990    -0.42900
C901        C  0.98319361  0.25194840  0.35195836     0.00700
C902        C  0.99718121  0.27240220  0.34498721    -0.11200
C903        C  0.01583895  0.28330007  0.36030904     0.02900
C904        C  0.02161904  0.27362958  0.38263610     0.00600
C905        C  0.00875250  0.25247830  0.38736984    -0.11100
C906        C  0.98948447  0.24161806  0.37248751     0.02800
H907        H  0.99299209  0.28048400  0.32868322     0.15800
H908        H  0.01321194  0.24472438  0.40382586     0.15800
C909        C  0.97617864  0.22037333  0.38000630     0.37400
C910        C  0.02837741  0.30476827  0.35311668     0.37300
N911        N  0.96560632  0.20332381  0.38610664    -0.42900
N912        N  0.03808413  0.32200415  0.34745534    -0.42900
C913        C  0.31671931  0.40568549  0.43570987     0.00700
C914        C  0.33029403  0.39934913  0.42522985    -0.11200
C915        C  0.34990194  0.40730900  0.43759238     0.02900
C916        C  0.35683818  0.42252292  0.46079847     0.00600
C917        C  0.34405692  0.43030873  0.46956067    -0.11100
C918        C  0.32402090  0.42188714  0.45746721     0.02800
H919        H  0.32523164  0.38726700  0.40812181     0.15800
H920        H  0.36688197  0.41133253  0.92788664     0.15800
C921        C  0.31099428  0.42926634  0.46921664     0.37400
C922        C  0.36232213  0.39902656  0.42626449     0.37300
N923        N  0.30060588  0.43524059  0.47873801    -0.42900
N924        N  0.37196419  0.39207048  0.41715452    -0.42900
C925        C  0.14597760  0.33479990  0.41978691     0.00700
C926        C  0.15240258  0.32129753  0.43000318    -0.11200
C927        C  0.17319231  0.32717494  0.43152697     0.02900
C928        C  0.18837127  0.34695756  0.42186757     0.00600
C929        C  0.18197729  0.36059955  0.41192540    -0.11100
C930        C  0.16112357  0.35480334  0.41087045     0.02800
H931        H  0.14112948  0.30610821  0.43746451     0.15800
H932        H  0.19327845  0.37578042  0.40448402     0.15800
C933        C  0.15588371  0.36971544  0.40002366     0.37400
C934        C  0.17827282  0.31258348  0.44416202     0.37300
N935        N  0.15171753  0.38170214  0.39142663    -0.42900
N936        N  0.18213424  0.30079726  0.45451592    -0.42900
C937        C  0.24984138  0.33149481  0.26006039     0.00700
C938        C  0.24450452  0.31669674  0.28293997    -0.11200
C939        C  0.24597110  0.32201731  0.31404374     0.02900
C940        C  0.25298574  0.34263086  0.32291721     0.00600
C941        C  0.25889200  0.35745739  0.30001315    -0.11100
C942        C  0.25729200  0.35213274  0.26902442     0.02800
H943        H  0.23859798  0.30076976  0.27649233     0.15800
H944        H  0.26424803  0.37331891  0.30625834     0.15800
C945        C  0.26184459  0.36800292  0.24703110     0.37400
C946        C  0.23903240  0.30578196  0.33611114     0.37300
N947        N  0.26530577  0.38070085  0.22944835    -0.42900
N948        N  0.23336952  0.29280200  0.35386131    -0.42900
C949        C  0.25092391  0.33259444  0.07157179     0.00700
C950        C  0.23842184  0.31772513  0.04970026    -0.11200
C951        C  0.24108920  0.32168470  0.01848645     0.02900
C952        C  0.25633993  0.34098055  0.00841211     0.00600
C953        C  0.26952826  0.35559814  0.02995290    -0.11100
C954        C  0.26722530  0.35143875  0.06133302     0.02800
H955        H  0.22610380  0.30296694  0.05695491     0.15800
H956        H  0.28142651  0.37044211  0.02223696     0.15800
C957        C  0.28143461  0.36694966  0.08226371     0.37400
C958        C  0.22700198  0.30622143  0.99736721     0.37300
N959        N  0.29297649  0.37936655  0.09892727    -0.42900
N960        N  0.21898038  0.29026783  0.47666668    -0.42900
C961        C  0.18579569  0.33140263  0.16607640     0.00700
C962        C  0.19285403  0.35261994  0.16836985    -0.11200
C963        C  0.17933573  0.36037419  0.16810004     0.02900
C964        C  0.15806614  0.34682518  0.16529741     0.00600
C965        C  0.15102975  0.32564019  0.16263120    -0.11100
C966        C  0.16451432  0.31786628  0.16317048     0.02800
H967        H  0.20910883  0.36334662  0.17070826     0.15800
H968        H  0.13476618  0.31491163  0.16035779     0.15800
C969        C  0.15589150  0.29593045  0.16080577     0.37400
C970        C  0.18780629  0.38223047  0.17160728     0.37300
N971        N  0.14883904  0.27832340  0.15902798    -0.42900
N972        N  0.19464151  0.39975235  0.17452279    -0.42900
C973        C  0.08850314  0.34432406  0.07704640     0.00700
C974        C  0.07991755  0.32338836  0.06996193    -0.11200
C975        C  0.07660651  0.31632828  0.03959390     0.02900
C976        C  0.08164441  0.33035060  0.01529069     0.00600
C977        C  0.08877029  0.35109300  0.02261754    -0.11100
C978        C  0.09231873  0.35815025  0.05298792     0.02800
H979        H  0.07669203  0.31255044  0.08817960     0.15800
H980        H  0.09239456  0.36207863  0.00451041     0.15800
C981        C  0.09995139  0.37969746  0.05874208     0.37400
C982        C  0.06844697  0.29464884  0.03439354     0.37300
N983        N  0.10604416  0.39695942  0.06336906    -0.42900
N984        N  0.06193493  0.27723882  0.03060032    -0.42900
C985        C  0.09465313  0.34462557  0.26335957     0.00700
C986        C  0.10181954  0.36049936  0.28530510    -0.11200
C987        C  0.09820163  0.35627418  0.31641860     0.02900
C988        C  0.08735380  0.33575620  0.32612287     0.00600
C989        C  0.07967419  0.31990563  0.30409804    -0.11100
C990        C  0.08319030  0.32412766  0.27299048     0.02800
H991        H  0.11051291  0.37633543  0.27816072     0.15800
H992        H  0.07123831  0.30405584  0.31127062     0.15800
C993        C  0.07589848  0.30710174  0.25177866     0.37400
C994        C  0.10675914  0.37325676  0.33778581     0.37300
N995        N  0.07012735  0.29345115  0.23480443    -0.42900
N996        N  0.11368229  0.38695392  0.35476847    -0.42900
C997        C  0.15640105  0.81007345  0.42095104     0.00700
C998        C  0.15027359  0.82499756  0.42155152    -0.11200
C999        C  0.16450132  0.84607901  0.42363890     0.02900
C1000       C  0.18568902  0.85294476  0.42536476     0.00600
C1001       C  0.19181114  0.83797973  0.42504163    -0.11100
C1002       C  0.17754754  0.81687170  0.42297607     0.02800
H1003       H  0.13413500  0.82022083  0.42010638     0.15800
H1004       H  0.20794473  0.84273881  0.42645516     0.15800
C1005       C  0.18514931  0.80265407  0.42378440     0.37400
C1006       C  0.15668845  0.86012087  0.42341996     0.37300
N1007       N  0.19133842  0.79133553  0.42460078    -0.42900
N1008       N  0.15014022  0.87114627  0.42314431    -0.42900
C1009       C  0.07855204  0.75216786  0.26029041     0.00700
C1010       C  0.07274030  0.76092681  0.28395585    -0.11200
C1011       C  0.07533453  0.75762349  0.31479637     0.02900
C1012       C  0.08474650  0.74600105  0.32264422     0.00600
C1013       C  0.08940103  0.73627315  0.29904611    -0.11100
C1014       C  0.08593274  0.73879903  0.26829396     0.02800
H1015       H  0.06653028  0.77077334  0.27838445     0.15800
H1016       H  0.09602929  0.72678987  0.30460810     0.15800
C1017       C  0.09068051  0.72787086  0.24553446     0.37400
C1018       C  0.06889228  0.76701964  0.33777530     0.37300
N1019       N  0.09425010  0.71893551  0.22727162    -0.42900
N1020       N  0.06357873  0.77436244  0.35627618    -0.42900
C1021       C  0.08769953  0.75786723  0.07321735     0.00700
C1022       C  0.07823511  0.76392643  0.05108988    -0.11200
C1023       C  0.08032041  0.76135788  0.01983549     0.02900
C1024       C  0.09210150  0.75255312  0.01026595     0.00600
C1025       C  0.10116652  0.74610570  0.03245007    -0.11100
C1026       C  0.09914379  0.74872444  0.06360167     0.02800
H1027       H  0.06957902  0.77118910  0.05823717     0.15800
H1028       H  0.11036777  0.73940852  0.02540137     0.15800
C1029       C  0.11031860  0.74338537  0.08494357     0.37400
C1030       C  0.07147472  0.76921936  0.99829075     0.37300
N1031       N  0.11946653  0.73924447  0.10189211    -0.42900
N1032       N  0.07037272  0.78149026  0.48082047    -0.42900
C1033       C  0.02791410  0.76835611  0.13405870     0.00700
C1034       C  0.02513026  0.76133049  0.10376395    -0.11200
C1035       C  0.00597655  0.75287566  0.08941046     0.02900
C1036       C  0.98899435  0.75104827  0.10563302     0.00600
C1037       C  0.99229699  0.76007148  0.13485270    -0.11100
C1038       C  0.01158485  0.76855860  0.14924990     0.02800
H1039       H  0.03774916  0.76141348  0.09179960     0.15800
H1040       H  0.97943516  0.75887833  0.14749358     0.15800
C1041       C  0.01382209  0.77582362  0.18031403     0.37400
C1042       C  0.00407070  0.74560862  0.05833708     0.37300
N1043       N  0.01558554  0.78167048  0.20522701    -0.42900
N1044       N  0.00282245  0.74003593  0.03334462    -0.42900
C1045       C  0.32112936  0.91046095  0.19200284     0.00700
C1046       C  0.32498833  0.90080551  0.21647541    -0.11200
C1047       C  0.34418420  0.91026280  0.23137556     0.02900
C1048       C  0.35961618  0.92973679  0.22180249     0.00600
C1049       C  0.35634824  0.93811917  0.19533721    -0.11100
C1050       C  0.33743401  0.92873687  0.18043111     0.02800
H1051       H  0.31258074  0.88661695  0.22539692     0.15800
H1052       H  0.36845319  0.95274236  0.18704001     0.15800
C1053       C  0.33498843  0.93865922  0.15395374     0.37400
C1054       C  0.34712108  0.90038584  0.25740141     0.37300
N1055       N  0.33316534  0.94669626  0.13275261    -0.42900
N1056       N  0.34932368  0.89220799  0.27809996    -0.42900
C1057       C  0.19365698  0.84740221  0.17228090     0.00700
C1058       C  0.18652189  0.82640187  0.16776675    -0.11200
C1059       C  0.16547098  0.81199198  0.16773387     0.02900
C1060       C  0.15085528  0.81852701  0.17158998     0.00600
C1061       C  0.15805469  0.83945578  0.17663080    -0.11100
C1062       C  0.17902980  0.85373971  0.17756557     0.02800
H1063       H  0.19740754  0.82115808  0.16427950     0.15800
H1064       H  0.14722822  0.84475356  0.18031121     0.15800
C1065       C  0.18485442  0.87469558  0.18507205     0.37400
C1066       C  0.15953611  0.79064266  0.16393339     0.37300
N1067       N  0.18951769  0.89144140  0.19136999    -0.42900
N1068       N  0.15482741  0.77353160  0.16113561    -0.42900
C1069       C  0.25993251  0.91315604  0.07773729     0.00700
C1070       C  0.26764824  0.90564210  0.05488873    -0.11200
C1071       C  0.26569830  0.90876197  0.02371594     0.02900
C1072       C  0.25512695  0.91903103  0.01453270     0.00600
C1073       C  0.24823197  0.92730045  0.03742837    -0.11100
C1074       C  0.25079112  0.92477489  0.06856644     0.02800
H1075       H  0.27511171  0.89706950  0.06137396     0.15800
H1076       H  0.24044830  0.93557233  0.03100828     0.15800
C1077       C  0.24317339  0.93373587  0.09042016     0.37400
C1078       C  0.27434999  0.90080905  0.00187526     0.37300
N1079       N  0.23715733  0.94107430  0.10783641    -0.42900
N1080       N  0.29347586  0.90833862  0.48694267    -0.42900
C1081       C  0.25319680  0.90570919  0.26831643     0.00700
C1082       C  0.25985032  0.89642403  0.28991137    -0.11200
C1083       C  0.25721277  0.89793137  0.32130336     0.02900
C1084       C  0.24790194  0.90907618  0.33167062     0.00600
C1085       C  0.24125330  0.91831873  0.31019107    -0.11100
C1086       C  0.24367935  0.91666246  0.27888114     0.02800
H1087       H  0.26688539  0.88765870  0.28225211     0.15800
H1088       H  0.23389498  0.92677470  0.31788624     0.15800
C1089       C  0.23518302  0.92542342  0.25832835     0.37400
C1090       C  0.26299514  0.88685892  0.34211052     0.37300
N1091       N  0.22816592  0.93238413  0.24210789    -0.42900
N1092       N  0.26744333  0.87783007  0.35876427    -0.42900
C1093       C  0.24869593  0.26754928  0.13938667     0.00700
C1094       C  0.23998837  0.25562206  0.11272512    -0.11200
C1095       C  0.24969644  0.24618435  0.09749909     0.02900
C1096       C  0.26824936  0.24867204  0.10915644     0.00600
C1097       C  0.27613028  0.25950486  0.13653428    -0.11100
C1098       C  0.26658841  0.26872992  0.15173259     0.02800
H1099       H  0.22646148  0.25483905  0.10268487     0.15800
H1100       H  0.29035693  0.26135851  0.14569047     0.15800
C1101       C  0.27609477  0.27999660  0.17948175     0.37400
C1102       C  0.24143739  0.23561884  0.06887979     0.37300
N1103       N  0.28389415  0.28908129  0.20158550    -0.42900
N1104       N  0.23495999  0.22721668  0.04583295    -0.42900
C1105       C  0.33184662  0.18703715  0.08380934     0.00700
C1106       C  0.31787505  0.16683203  0.09205008    -0.11200
C1107       C  0.32390680  0.15203493  0.09483884     0.02900
C1108       C  0.34446406  0.15722779  0.08907312     0.00600
C1109       C  0.35858330  0.17759574  0.08171168    -0.11100
C1110       C  0.35252842  0.19240245  0.07889789     0.02800
H1111       H  0.30211303  0.16253391  0.09651616     0.15800
H1112       H  0.37432576  0.18187833  0.07716775     0.15800
C1113       C  0.36784923  0.21271988  0.06969100     0.37400
C1114       C  0.30850201  0.13172800  0.10396251     0.37300
N1115       N  0.38017374  0.22895020  0.06219814    -0.42900
N1116       N  0.29603967  0.11550858  0.11126598    -0.42900
C1117       C  0.40225659  0.08591157  0.06607913     0.00700
C1118       C  0.41567333  0.09346057  0.04114754    -0.11200
C1119       C  0.42399856  0.08200072  0.02820073     0.02900
C1120       C  0.41873004  0.06260898  0.04010586     0.00600
C1121       C  0.40632988  0.05574646  0.06603519    -0.11100
C1122       C  0.39836720  0.06722335  0.07925148     0.02800
H1123       H  0.41871394  0.10770886  0.03066901     0.15800
H1124       H  0.40267296  0.04113942  0.07597455     0.15800
C1125       C  0.38620827  0.05939288  0.10644371     0.37400
C1126       C  0.43665575  0.08972277  0.00153963     0.37300
N1127       N  0.37657229  0.05316305  0.12831367    -0.42900
N1128       N  0.44679695  0.09585402  0.98012529    -0.42900
C1129       C  0.33240925  0.08392073  0.24112649     0.00700
C1130       C  0.35321239  0.09291887  0.23350351    -0.11200
C1131       C  0.35966883  0.09700310  0.20310619     0.02900
C1132       C  0.34513218  0.09175398  0.17929953     0.00600
C1133       C  0.32430112  0.08206722  0.18678454    -0.11100
C1134       C  0.31785517  0.07835497  0.21719073     0.02800
H1135       H  0.36461638  0.09734268  0.25142359     0.15800
H1136       H  0.31296775  0.07801299  0.16883751     0.15800
C1137       C  0.29619236  0.06910615  0.22284386     0.37400
C1138       C  0.38131626  0.10643825  0.19720265     0.37300
N1139       N  0.27881524  0.06180053  0.22715550    -0.42900
N1140       N  0.39869575  0.11399467  0.19271867    -0.42900
C1141       C  0.33667140  0.08556345  0.42939497     0.00700
C1142       C  0.32089065  0.07546597  0.45067350    -0.11200
C1143       C  0.32507510  0.07709216  0.48197687     0.02900
C1144       C  0.34534353  0.08948604  0.49240184     0.00600
C1145       C  0.36122369  0.09863807  0.47105060    -0.11100
C1146       C  0.35709732  0.09662816  0.43974966     0.02800
H1147       H  0.30516755  0.06657374  0.44283828     0.15800
H1148       H  0.37691998  0.10791174  0.47887045     0.15800
C1149       C  0.37398112  0.10710716  0.41903974     0.37400
C1150       C  0.30821684  0.06677169  0.50277972     0.37300
N1151       N  0.38755509  0.11548856  0.40250630    -0.42900
N1152       N  0.29077868  0.06885773  0.01951841    -0.42900
C1153       C  0.25707552  0.97892114  0.38896337     0.00700
C1154       C  0.24925096  0.99221699  0.39416246    -0.11200
C1155       C  0.25836104  0.01187269  0.38071331     0.02900
C1156       C  0.27568878  0.01858292  0.36167325     0.00600
C1157       C  0.28256826  0.00471034  0.35523011    -0.11100
C1158       C  0.27339583  0.98516646  0.36810368     0.02800
H1159       H  0.23643703  0.98754127  0.40944758     0.15800
H1160       H  0.29542593  0.00919374  0.34007076     0.15800
C1161       C  0.28072522  0.97155379  0.35846769     0.37400
C1162       C  0.25010645  0.02507619  0.38773742     0.37300
N1163       N  0.28649283  0.96061743  0.35053993    -0.42900
N1164       N  0.24352008  0.03572671  0.39318811    -0.42900
C1165       C  0.40206398  0.31483900  0.29825865     0.00700
C1166       C  0.42215583  0.32893953  0.30779962    -0.11200
C1167       C  0.43290449  0.34870942  0.29486513     0.02900
C1168       C  0.42380365  0.35420321  0.27111643     0.00600
C1169       C  0.40435675  0.33951629  0.26049123    -0.11100
C1170       C  0.39339698  0.32034923  0.27399706     0.02800
H1171       H  0.42895865  0.32499612  0.32647980     0.15800
H1172       H  0.39711871  0.34340133  0.24232772     0.15800
C1173       C  0.37283471  0.30700149  0.26287689     0.37400
C1174       C  0.45232875  0.36354167  0.30808671     0.37300
N1175       N  0.35628149  0.29678169  0.25395252    -0.42900
N1176       N  0.46781717  0.37554954  0.31880670    -0.42900
C1177       C  0.34644302  0.18982029  0.32982215     0.00700
C1178       C  0.35930608  0.18380152  0.34398281    -0.11200
C1179       C  0.35377285  0.16301039  0.34577641     0.02900
C1180       C  0.33463282  0.14752262  0.33394186     0.00600
C1181       C  0.32207406  0.15362002  0.31901375    -0.11100
C1182       C  0.32795561  0.17441922  0.31623134     0.02800
H1183       H  0.37366432  0.19535520  0.35403375     0.15800
H1184       H  0.30780202  0.14209906  0.30868835     0.15800
C1185       C  0.31515483  0.17946019  0.29785668     0.37400
C1186       C  0.36808242  0.15818567  0.36022195     0.37300
N1187       N  0.30507904  0.18356295  0.28282855    -0.42900
N1188       N  0.37969743  0.15442860  0.37156408    -0.42900
C1189       C  0.33854746  0.25528520  0.42152307     0.00700
C1190       C  0.35343167  0.26534304  0.44439463    -0.11200
C1191       C  0.34831382  0.26300145  0.47535055     0.02900
C1192       C  0.32784407  0.24983363  0.48428284     0.00600
C1193       C  0.31271842  0.24084250  0.46132524    -0.11100
C1194       C  0.31779775  0.24369082  0.43024427     0.02800
H1195       H  0.36935625  0.27475939  0.43811397     0.15800
H1196       H  0.29684834  0.23112863  0.46764268     0.15800
C1197       C  0.30143890  0.23389056  0.40806576     0.37400
C1198       C  0.36637979  0.27535241  0.99909916     0.37300
N1199       N  0.28824301  0.22614732  0.39040428    -0.42900
N1200       N  0.37940081  0.28381851  0.01684020    -0.42900
C1201       C  0.34120813  0.25072485  0.23601789     0.00700
C1202       C  0.32063439  0.24269930  0.22770208    -0.11200
C1203       C  0.31483674  0.24109488  0.19701880     0.02900
C1204       C  0.32984502  0.24769552  0.17396098     0.00600
C1205       C  0.35051361  0.25701797  0.18237007    -0.11100
C1206       C  0.35632219  0.25856111  0.21302041     0.02800
H1207       H  0.30897140  0.23717476  0.24515069     0.15800
H1208       H  0.36215147  0.26243097  0.16488564     0.15800
C1209       C  0.37793828  0.26860794  0.22006672     0.37400
C1210       C  0.29339123  0.23278454  0.18999752     0.37300
N1211       N  0.39525977  0.27674172  0.22567888    -0.42900
N1212       N  0.27617563  0.22615607  0.18464757    -0.42900
C1213       C  0.06894874  0.64528700  0.47272418     0.00700
C1214       C  0.06305469  0.64755281  0.44332920    -0.11200
C1215       C  0.07325091  0.66624516  0.42811897     0.02900
C1216       C  0.08950272  0.68356788  0.44256105     0.00600
C1217       C  0.09624625  0.68107022  0.47146493    -0.11100
C1218       C  0.08613509  0.66201683  0.48654615     0.02800
H1219       H  0.05009417  0.63463516  0.43230691     0.15800
H1220       H  0.10856776  0.69424341  0.48302834     0.15800
C1221       C  0.07709506  0.66758682  0.03222033     0.37400
C1222       C  0.06668912  0.66715806  0.39750691     0.37300
N1223       N  0.07111103  0.66636357  0.05681743    -0.42900
N1224       N  0.06145468  0.66765373  0.37285616    -0.42900
C1225       C  0.00595141  0.51954887  0.49996445     0.00700
C1226       C  0.98467785  0.50589527  0.49767654    -0.11200
C1227       C  0.97652468  0.48459754  0.49505703     0.02900
C1228       C  0.98974923  0.47633622  0.49481199     0.00600
C1229       C  0.01780654  0.49485869  0.00395033    -0.11100
C1230       C  0.02616526  0.51624937  0.00602657     0.02800
H1231       H  0.97419234  0.51185018  0.49788274     0.15800
H1232       H  0.02742878  0.48841825  0.00985029     0.15800
C1233       C  0.04719059  0.52854758  0.01590705     0.37400
C1234       C  0.95458741  0.47182255  0.49251388     0.37300
N1235       N  0.06406127  0.53829169  0.02382311    -0.42900
N1236       N  0.93698299  0.46178697  0.49038297    -0.42900
C1237       C  0.90926082  0.32080618  0.06369272     0.00700
C1238       C  0.90075218  0.32397934  0.03703799    -0.11200
C1239       C  0.91132075  0.34240568  0.02067052     0.02900
C1240       C  0.93055259  0.35800381  0.03123670     0.00600
C1241       C  0.93804219  0.35551130  0.05925353    -0.11100
C1242       C  0.92755706  0.33732912  0.07563699     0.02800
H1243       H  0.88676832  0.31145307  0.02751659     0.15800
H1244       H  0.95260107  0.36765399  0.06793299     0.15800
C1245       C  0.93645429  0.33578466  0.10404619     0.37400
C1246       C  0.90318193  0.34411645  0.99175159     0.37300
N1247       N  0.94363861  0.33460377  0.12676284    -0.42900
N1248       N  0.89670522  0.34540364  0.96843751    -0.42900
C1249       C  0.99575857  0.58287593  0.15969352     0.00700
C1250       C  0.01688097  0.59446250  0.15395834    -0.11200
C1251       C  0.02457133  0.59785675  0.12408552     0.02900
C1252       C  0.01105717  0.58983188  0.09874441     0.00600
C1253       C  0.98990195  0.57912546  0.10439048    -0.11100
C1254       C  0.98220509  0.57547059  0.13428635     0.02800
H1255       H  0.02758652  0.60039283  0.17294916     0.15800
H1256       H  0.97926593  0.57288490  0.08535559     0.15800
C1257       C  0.96029489  0.56372139  0.13800866     0.37400
C1258       C  0.04646423  0.60970935  0.12028584     0.37300
N1259       N  0.94274336  0.55424393  0.14107657    -0.42900
N1260       N  0.06402507  0.61922716  0.11737675    -0.42900
C1261       C  0.99615779  0.57329415  0.34700015     0.00700
C1262       C  0.01689170  0.58323698  0.35528895    -0.11200
C1263       C  0.02285428  0.58640387  0.38600503     0.02900
C1264       C  0.00783708  0.57956451  0.40909509     0.00600
C1265       C  0.98716115  0.57029822  0.40076096    -0.11100
C1266       C  0.98119764  0.56707915  0.37010497     0.02800
H1267       H  0.02846885  0.58834751  0.33773848     0.15800
H1268       H  0.97555963  0.56523884  0.41827234     0.15800
C1269       C  0.95965218  0.55812242  0.36316659     0.37400
C1270       C  0.04448850  0.59725257  0.39304392     0.37300
N1271       N  0.94239248  0.55108469  0.35774547    -0.42900
N1272       N  0.06181727  0.60601550  0.39868418    -0.42900
C1273       C  0.92032951  0.60649334  0.31937378     0.00700
C1274       C  0.93971057  0.61033131  0.32878159    -0.11200
C1275       C  0.94862962  0.59962563  0.31623485     0.02900
C1276       C  0.93830498  0.58469378  0.29312667     0.00600
C1277       C  0.91797381  0.57914743  0.28594764    -0.11100
C1278       C  0.90888085  0.58990000  0.29897752     0.02800
H1279       H  0.94840546  0.62241775  0.34534805     0.15800
H1280       H  0.90961266  0.56724316  0.26902620     0.15800
C1281       C  0.88833256  0.58430854  0.28984345     0.37400
C1282       C  0.96860276  0.60460426  0.32763933     0.37300
N1283       N  0.87180267  0.57974164  0.28264846    -0.42900
N1284       N  0.98456600  0.60889322  0.33727567    -0.42900
C1285       C  0.08992403  0.40670904  0.19248740     0.00700
C1286       C  0.09770734  0.42006568  0.21791675    -0.11200
C1287       C  0.08619516  0.42811933  0.23163230     0.02900
C1288       C  0.06653264  0.42243644  0.22004578     0.00600
C1289       C  0.05970246  0.41045584  0.19336011    -0.11100
C1290       C  0.07119908  0.40287333  0.17942185     0.02800
H1291       H  0.11207725  0.42315306  0.22819051     0.15800
H1292       H  0.04497372  0.40662838  0.18353861     0.15800
C1293       C  0.06310110  0.39063571  0.15196386     0.37400
C1294       C  0.09423702  0.44095834  0.25846688     0.37300
N1295       N  0.05673160  0.38080097  0.12999430    -0.42900
N1296       N  0.10081041  0.45130687  0.27992979    -0.42900
C1297       C  0.99048589  0.51340432  0.24801769     0.00700
C1298       C  0.97545722  0.49274993  0.25133040    -0.11200
C1299       C  0.98068201  0.47725379  0.25233454     0.02900
C1300       C  0.00138681  0.48220319  0.24916054     0.00600
C1301       C  0.01634435  0.50281302  0.24558257    -0.11100
C1302       C  0.01121855  0.51832591  0.24520572     0.02800
H1303       H  0.95959356  0.48870508  0.25407874     0.15800
H1304       H  0.03223934  0.50690956  0.24308176     0.15800
C1305       C  0.02781312  0.53914025  0.24207389     0.37400
C1306       C  0.96450720  0.45661715  0.25823031     0.37300
N1307       N  0.04116420  0.55580553  0.23982728    -0.42900
N1308       N  0.95152406  0.44014152  0.26326264    -0.42900
C1309       C  0.99923175  0.41203671  0.34058412     0.00700
C1310       C  0.01452993  0.42048359  0.36331924    -0.11200
C1311       C  0.00979787  0.41772310  0.39444362     0.02900
C1312       C  0.98917698  0.40630015  0.40381080     0.00600
C1313       C  0.97393333  0.39677178  0.38115509    -0.11100
C1314       C  0.97871895  0.39934658  0.34989905     0.02800
H1315       H  0.03039849  0.42997057  0.35680869     0.15800
H1316       H  0.95805343  0.38771959  0.38787228     0.15800
C1317       C  0.96205844  0.38943426  0.32826682     0.37400
C1318       C  0.02648184  0.42806679  0.41596328     0.37300
N1319       N  0.94845721  0.38126345  0.31135769    -0.42900
N1320       N  0.04004356  0.43649043  0.43287077    -0.42900
C1321       C  0.00376444  0.42240059  0.15115382     0.00700
C1322       C  0.01992656  0.43123930  0.13006292    -0.11200
C1323       C  0.01610308  0.42947272  0.09848720     0.02900
C1324       C  0.99577095  0.41887148  0.08756328     0.00600
C1325       C  0.97972553  0.40960484  0.10857182    -0.11100
C1326       C  0.98349606  0.41125116  0.13998879     0.02800
H1327       H  0.03559603  0.43985490  0.13826467     0.15800
H1328       H  0.96401365  0.40140314  0.10040772     0.15800
C1329       C  0.96614192  0.40253527  0.16012868     0.37400
C1330       C  0.03313767  0.43965168  0.07792637     0.37300
N1331       N  0.95221294  0.39565837  0.17624620    -0.42900
N1332       N  0.04667881  0.44779049  0.06126237    -0.42900
O1333       O  0.00019234  0.41605323  0.78253226    -0.57000
C1334       C  0.01050079  0.42966924  0.68571511     0.75600
O1335       O  0.03415531  0.47836205  0.75472279    -0.58100
C1336       C  0.01132979  0.42410156  0.80604640     0.75600
C1337       C  0.05792293  0.43378056  0.73244002     0.78000
Cd1338     Cd  0.02518681  0.44154273  0.74683663     1.37500
O1339       O  0.99987414  0.41895344  0.70799462    -0.57000
O1340       O  0.03945362  0.41997853  0.73601658    -0.55800
C1341       C  0.01554626  0.47416679  0.75356127     0.78000
O1342       O  0.06249642  0.45210476  0.73921414    -0.58200
O1343       O  0.02723715  0.44571579  0.69212599    -0.56600
O1344       O  0.02915680  0.43903131  0.80145689    -0.56600
O1345       O  0.00247095  0.45555537  0.74877974    -0.55800
O1346       O  0.00681309  0.59212658  0.79422852    -0.57000
C1347       C  0.99102874  0.57895425  0.69276857     0.75600
O1348       O  0.97267087  0.53236354  0.75631842    -0.58100
C1349       C  0.99581974  0.58156568  0.81650466     0.75600
C1350       C  0.95435338  0.58375006  0.77301058     0.78000
Cd1351     Cd  0.98138690  0.56908188  0.75611437     1.37500
O1352       O  0.00359254  0.58958508  0.71387894    -0.57000
O1353       O  0.97267222  0.59514513  0.76450900    -0.55800
C1354       C  0.99140546  0.53692192  0.75839707     0.78000
O1355       O  0.94673710  0.56444989  0.76893393    -0.58200
O1356       O  0.97370428  0.56457422  0.70123168    -0.56600
O1357       O  0.97925215  0.56529077  0.81004421    -0.56600
O1358       O  0.00449171  0.55586162  0.75944295    -0.55800
O1359       O  0.99721971  0.41199738  0.95474614    -0.57000
C1360       C  0.98815048  0.41729155  0.55804781     0.75600
O1361       O  0.96372887  0.43986884  0.49422128    -0.58100
C1362       C  0.98594701  0.41089253  0.93233321     0.75600
C1363       C  0.94093037  0.37302093  0.52000841     0.78000
Cd1364     Cd  0.97223576  0.41161858  0.49762441     1.37500
O1365       O  0.99750655  0.41412105  0.53635057    -0.57000
O1366       O  0.95949748  0.37779975  0.51719166    -0.55800
C1367       C  0.98930276  0.45901826  0.99376524     0.78000
O1368       O  0.93562988  0.38529904  0.50876749    -0.58200
O1369       O  0.97270442  0.41886209  0.55082024    -0.56600
O1370       O  0.96927664  0.41032457  0.93889612    -0.56600
O1371       O  0.00148569  0.45206775  0.99602196    -0.55800
O1372       O  0.00847180  0.59220268  0.96570780    -0.57000
C1373       C  0.01462239  0.58715342  0.56512871     0.75600
O1374       O  0.03985314  0.56137992  0.00581919    -0.58100
C1375       C  0.01947145  0.59267333  0.94335848     0.75600
C1376       C  0.06692263  0.63062694  0.99594000     0.78000
Cd1377     Cd  0.03204987  0.59038355  0.00457798     1.37500
O1378       O  0.00260551  0.58543587  0.54336432    -0.57000
O1379       O  0.04953251  0.62744660  0.00444247    -0.55800
C1380       C  0.02125631  0.54759358  0.00138357     0.78000
O1381       O  0.06928588  0.61501790  0.99426217    -0.58200
O1382       O  0.03150309  0.58851449  0.55761780    -0.56600
O1383       O  0.03533039  0.59177118  0.94995306    -0.56600
O1384       O  0.00079185  0.54849440  0.50189530    -0.55800
O1385       O  0.33581718  0.25502151  0.86809336    -0.57000
C1386       C  0.34733252  0.25231418  0.76800889     0.75600
O1387       O  0.39535459  0.28386676  0.81936167    -0.58100
C1388       C  0.34742532  0.25788343  0.89093677     0.75600
C1389       C  0.34923258  0.21257277  0.83107069     0.78000
Cd1390     Cd  0.35980724  0.25504251  0.82999206     1.37500
O1391       O  0.33570378  0.25203184  0.78931999    -0.57000
O1392       O  0.33637869  0.21870207  0.82943282    -0.55800
C1393       C  0.38858002  0.29611453  0.81413573     0.78000
O1394       O  0.36802091  0.22658688  0.83310832    -0.58200
O1395       O  0.36386830  0.25305043  0.77593108    -0.56600
O1396       O  0.36515697  0.26069146  0.88517662    -0.56600
O1397       O  0.37014835  0.29003204  0.82124277    -0.55800
O1398       O  0.33493552  0.08156019  0.79374025    -0.57000
C1399       C  0.32575384  0.08633404  0.89493849     0.75600
O1400       O  0.30462653  0.11104925  0.82732822    -0.58100
C1401       C  0.32302601  0.07895819  0.77136550     0.75600
C1402       C  0.28349764  0.04013119  0.84735466     0.78000
Cd1403     Cd  0.31220146  0.08224411  0.83326930     1.37500
O1404       O  0.33684710  0.08587574  0.87335844    -0.57000
O1405       O  0.30191076  0.04664006  0.83956569    -0.55800
C1406       C  0.32343315  0.12502657  0.82962374     0.78000
O1407       O  0.27714910  0.05301820  0.84609791    -0.58200
O1408       O  0.30895572  0.08520864  0.88739319    -0.56600
O1409       O  0.30564981  0.07680246  0.77794102    -0.56600
O1410       O  0.33611709  0.11881015  0.83329902    -0.55800
O1411       O  0.34014599  0.08313709  0.62336791    -0.57000
C1412       C  0.35048826  0.09501908  0.52482128     0.75600
O1413       O  0.36912782  0.14368422  0.58899136    -0.58100
C1414       C  0.35113998  0.09307306  0.64623250     0.75600
C1415       C  0.39766701  0.10354571  0.57034085     0.78000
Cd1416     Cd  0.36321696  0.10805109  0.58528112     1.37500
O1417       O  0.34050805  0.08315951  0.54664862    -0.57000
O1418       O  0.37988241  0.08850914  0.57442125    -0.55800
C1419       C  0.35053147  0.13839750  0.58330063     0.78000
O1420       O  0.40056168  0.12136967  0.57663996    -0.58200
O1421       O  0.36544483  0.11245289  0.53178899    -0.56600
O1422       O  0.36790857  0.10914849  0.64043381    -0.56600
O1423       O  0.33836273  0.11941860  0.57927679    -0.55800
O1424       O  0.33365374  0.25373197  0.53910391    -0.57000
C1425       C  0.32523917  0.24112426  0.63997658     0.75600
O1426       O  0.27520607  0.21920136  0.59012478    -0.58100
C1427       C  0.32205578  0.24382154  0.51670870     0.75600
C1428       C  0.32278885  0.19810819  0.57933072     0.78000
Cd1429     Cd  0.31168897  0.22948695  0.57847446     1.37500
O1430       O  0.33627881  0.25262165  0.61845883    -0.57000
O1431       O  0.33558000  0.21709118  0.58139010    -0.55800
C1432       C  0.28023323  0.23780372  0.59572424     0.78000
O1433       O  0.30409746  0.19318101  0.57541237    -0.58200
O1434       O  0.30915427  0.22482019  0.63218498    -0.56600
O1435       O  0.30534464  0.22785352  0.52328736    -0.56600
O1436       O  0.29819083  0.25149254  0.58867129    -0.55800
O1437       O  0.26091866  0.91535213  0.63556913    -0.57000
C1438       C  0.25809098  0.90321733  0.73254573     0.75600
O1439       O  0.23054289  0.85389446  0.66483550    -0.58100
C1440       C  0.26305459  0.90654857  0.61217183     0.75600
C1441       C  0.29894440  0.89619673  0.68681444     0.78000
Cd1442     Cd  0.25942991  0.89007220  0.67205589     1.37500
O1443       O  0.25890635  0.91426482  0.71014007    -0.57000
O1444       O  0.29583361  0.91056546  0.67886949    -0.55800
C1445       C  0.21680232  0.85893862  0.66804415     0.78000
O1446       O  0.28399193  0.87792601  0.68442640    -0.58200
O1447       O  0.25762359  0.88653288  0.72632077    -0.56600
O1448       O  0.26485746  0.89088538  0.61685008    -0.56600
O1449       O  0.22318019  0.87770351  0.67339733    -0.55800
O1450       O  0.08554812  0.74377939  0.70358964    -0.57000
C1451       C  0.08363798  0.75669835  0.60365063     0.75600
O1452       O  0.06174511  0.78216459  0.65901118    -0.58100
C1453       C  0.08458064  0.75351844  0.72680961     0.75600
C1454       C  0.12921747  0.79958316  0.66583766     0.78000
Cd1455     Cd  0.08619539  0.76909152  0.66608937     1.37500
O1456       O  0.08396317  0.74535807  0.62485220    -0.57000
O1457       O  0.12238164  0.78059356  0.66177810    -0.55800
C1458       C  0.04611364  0.76424853  0.65981098     0.78000
O1459       O  0.11582559  0.80500605  0.66992996    -0.58200
O1460       O  0.08446267  0.77325478  0.61187863    -0.56600
O1461       O  0.08380525  0.76968386  0.72149554    -0.56600
O1462       O  0.04928169  0.74965365  0.66625734    -0.55800
O1463       O  0.08443151  0.74792505  0.95582004    -0.57000
C1464       C  0.09418816  0.74097498  0.85505080     0.75600
O1465       O  0.14399473  0.77471181  0.91564836    -0.58100
C1466       C  0.09680021  0.75109615  0.97788291     0.75600
C1467       C  0.10367182  0.70827401  0.93977092     0.78000
Cd1468     Cd  0.10825914  0.74628281  0.91804389     1.37500
O1469       O  0.08394902  0.74264016  0.87678508    -0.57000
O1470       O  0.08883114  0.71145881  0.93584420    -0.55800
C1471       C  0.13943073  0.78886984  0.91777745     0.78000
O1472       O  0.12110225  0.72196629  0.93022512    -0.58200
O1473       O  0.11001216  0.74018824  0.86282274    -0.56600
O1474       O  0.11385305  0.75265074  0.97128539    -0.56600
O1475       O  0.12051562  0.78304962  0.91860038    -0.55800
O1476       O  0.25800295  0.91660980  0.95939216    -0.57000
C1477       C  0.24568531  0.91354807  0.85954945     0.75600
O1478       O  0.19697692  0.89121023  0.92342127    -0.58100
C1479       C  0.24950195  0.91999301  0.98195651     0.75600
C1480       C  0.24679253  0.95897539  0.90062481     0.78000
Cd1481     Cd  0.23461602  0.91780280  0.91989628     1.37500
O1482       O  0.25640287  0.91350827  0.88209075    -0.57000
O1483       O  0.25919391  0.95255004  0.90566024    -0.55800
C1484       C  0.20032934  0.87620194  0.92131298     0.78000
O1485       O  0.22825859  0.94714633  0.90848421    -0.58200
O1486       O  0.22979816  0.91457924  0.86565334    -0.56600
O1487       O  0.23521312  0.92365785  0.97540221    -0.56600
O1488       O  0.21887717  0.88092999  0.91853653    -0.55800
O1489       O  0.09012281  0.34014051  0.70954279    -0.57000
C1490       C  0.09796238  0.35420149  0.60911963     0.75600
O1491       O  0.12090887  0.40149077  0.68303716    -0.58100
C1492       C  0.10099216  0.35091038  0.73206269     0.75600
C1493       C  0.14507716  0.35474471  0.66664594     0.78000
Cd1494     Cd  0.11303085  0.36521643  0.67114587     1.37500
O1495       O  0.08901356  0.34229261  0.63133056    -0.57000
O1496       O  0.12617107  0.34175714  0.66812317    -0.55800
C1497       C  0.10194177  0.39610589  0.68300452     0.78000
O1498       O  0.14977800  0.37357507  0.66718383    -0.58200
O1499       O  0.11345634  0.37141672  0.61586157    -0.56600
O1500       O  0.11721943  0.36739297  0.72581666    -0.56600
O1501       O  0.08948974  0.37756776  0.67611595    -0.55800
O1502       O  0.25695503  0.33409144  0.62387540    -0.57000
C1503       C  0.24457762  0.32246933  0.72479032     0.75600
O1504       O  0.19664604  0.30424820  0.66240433    -0.58100
C1505       C  0.24556530  0.32370955  0.60149214     0.75600
C1506       C  0.24160653  0.27829091  0.65272643     0.78000
Cd1507     Cd  0.23250266  0.31074091  0.66221365     1.37500
O1508       O  0.25533683  0.33360868  0.70290434    -0.57000
O1509       O  0.25474940  0.29672102  0.65911013    -0.55800
C1510       C  0.20204206  0.32326081  0.66204376     0.78000
O1511       O  0.22288815  0.27379535  0.65293013    -0.58200
O1512       O  0.22902537  0.30544746  0.71740365    -0.56600
O1513       O  0.22858746  0.30811995  0.60796686    -0.56600
O1514       O  0.22112289  0.33574725  0.66161741    -0.55800
O1515       O  0.25479510  0.33550424  0.87528957    -0.57000
C1516       C  0.25700084  0.34704632  0.97630916     0.75600
O1517       O  0.28378261  0.39633388  0.92585402    -0.58100
C1518       C  0.25661910  0.34704949  0.85303028     0.75600
C1519       C  0.21434040  0.34941803  0.91486420     0.78000
Cd1520     Cd  0.25670142  0.35987268  0.91535309     1.37500
O1521       O  0.25666326  0.33596926  0.95391373    -0.57000
O1522       O  0.22033686  0.33656256  0.91836559    -0.55800
C1523       C  0.29806773  0.39191225  0.92505798     0.78000
O1524       O  0.22839011  0.36808796  0.91200491    -0.58200
O1525       O  0.25715923  0.36353595  0.97012198    -0.56600
O1526       O  0.25971714  0.36481092  0.85989677    -0.56600
O1527       O  0.29299227  0.37368601  0.91740115    -0.55800
O1528       O  0.08342884  0.33648591  0.96091022    -0.57000
C1529       C  0.08849421  0.32990204  0.85964271     0.75600
O1530       O  0.11329192  0.30614965  0.91905466    -0.58100
C1531       C  0.08130874  0.32439176  0.98252366     0.75600
C1532       C  0.04413208  0.28523425  0.89968933     0.78000
Cd1533     Cd  0.08492597  0.31460614  0.91960897     1.37500
O1534       O  0.08798499  0.34056193  0.88206923    -0.57000
O1535       O  0.05015142  0.30385245  0.90611793    -0.55800
C1536       C  0.12745976  0.32492480  0.91881624     0.78000
O1537       O  0.05636232  0.27869920  0.90651223    -0.58200
O1538       O  0.08799582  0.31323949  0.86587943    -0.56600
O1539       O  0.07989020  0.30743476  0.97467678    -0.56600
O1540       O  0.12158412  0.33801500  0.92016894    -0.55800
O1541       O  0.41613617  0.41875612  0.78535631    -0.57000
C1542       C  0.42446484  0.41317229  0.68471015     0.75600
O1543       O  0.47591861  0.44554456  0.74343991    -0.58100
C1544       C  0.42675651  0.41799485  0.80747506     0.75600
C1545       C  0.42926885  0.37609109  0.75846819     0.78000
Cd1546     Cd  0.43928250  0.41727328  0.74645362     1.37500
O1547       O  0.41465703  0.41514978  0.70682412    -0.57000
O1548       O  0.41653742  0.38159700  0.75063601    -0.55800
C1549       C  0.47115234  0.45955048  0.74628856     0.78000
O1550       O  0.44814590  0.38983967  0.75785278    -0.58200
O1551       O  0.44067553  0.41285733  0.69161191    -0.56600
O1552       O  0.44286424  0.41758141  0.80067104    -0.56600
O1553       O  0.45225615  0.45360392  0.74818045    -0.55800
O1554       O  0.58540166  0.59055017  0.78720624    -0.57000
C1555       C  0.57182570  0.58571922  0.68787370     0.75600
O1556       O  0.52524293  0.56066067  0.75166312    -0.58100
C1557       C  0.57616560  0.59253538  0.81006133     0.75600
C1558       C  0.57419551  0.63021696  0.72890633     0.78000
Cd1559     Cd  0.56121975  0.58943901  0.74835774     1.37500
O1560       O  0.58289041  0.58575552  0.70999119    -0.57000
O1561       O  0.58581495  0.62423633  0.74015464    -0.55800
C1562       C  0.53039407  0.54698933  0.74748989     0.78000
O1563       O  0.55496120  0.61819363  0.73182005    -0.58200
O1564       O  0.55591114  0.58658943  0.69443234    -0.56600
O1565       O  0.56050247  0.59417529  0.80412814    -0.56600
O1566       O  0.54933069  0.55330917  0.74479703    -0.55800
O1567       O  0.58630607  0.58726410  0.54062243    -0.57000
C1568       C  0.59119886  0.58133494  0.93687958     0.75600
O1569       O  0.61769773  0.55945282  0.50912253    -0.58100
C1570       C  0.58555674  0.57510873  0.56137380     0.75600
C1571       C  0.54752292  0.53372733  0.99620861     0.78000
Cd1572     Cd  0.58852671  0.56623478  0.49958943     1.37500
O1573       O  0.58862369  0.59016313  0.95993591    -0.57000
O1574       O  0.55305905  0.55244682  0.00041083    -0.55800
C1575       C  0.63072180  0.57854863  0.51159924     0.78000
O1576       O  0.56057695  0.52955697  0.49401634    -0.58200
O1577       O  0.59415749  0.56646290  0.94256090    -0.56600
O1578       O  0.58591560  0.55916957  0.55281422    -0.56600
O1579       O  0.62418280  0.59080632  0.50597006    -0.55800
O1580       O  0.41471666  0.41488030  0.53613467    -0.57000
C1581       C  0.41818706  0.42765723  0.93588077     0.75600
O1582       O  0.39102458  0.45001193  0.98718393    -0.58100
C1583       C  0.41077934  0.42356859  0.55798989     0.75600
C1584       C  0.46071859  0.47194205  0.99609766     0.78000
Cd1585     Cd  0.41810392  0.44034829  0.99689336     1.37500
O1586       O  0.41770527  0.41636880  0.95781319    -0.57000
O1587       O  0.45363145  0.45222653  0.50125317    -0.55800
C1588       C  0.37786108  0.43153694  0.98007172     0.78000
O1589       O  0.44679552  0.47663462  0.00035846    -0.58200
O1590       O  0.41941582  0.44462179  0.94282729    -0.56600
O1591       O  0.40857115  0.43871932  0.55104477    -0.56600
O1592       O  0.38274542  0.41794354  0.98508260    -0.55800
O1593       O  0.41188183  0.99530748  0.96750957    -0.57000
C1594       C  0.42727069  0.01454039  0.56889330     0.75600
O1595       O  0.47713287  0.03462391  0.50584105    -0.58100
C1596       C  0.42155460  0.00777992  0.94613431     0.75600
C1597       C  0.43763187  0.06417516  0.51868773     0.78000
Cd1598     Cd  0.44125762  0.02844946  0.50856873     1.37500
O1599       O  0.41645531  0.00415565  0.54609459    -0.57000
O1600       O  0.42359578  0.04796695  0.50622468    -0.55800
C1601       C  0.46547762  0.00596343  0.00422073     0.78000
O1602       O  0.45464947  0.06494864  0.52358425    -0.58200
O1603       O  0.44357981  0.03097426  0.56312304    -0.56600
O1604       O  0.43629045  0.02517553  0.95415400    -0.56600
O1605       O  0.44646006  0.99319484  0.00508457    -0.55800
O1606       O  0.58284771  0.99309289  0.96464134    -0.57000
C1607       C  0.57359208  0.98051222  0.56167272     0.75600
O1608       O  0.52202819  0.96123762  0.00965351    -0.58100
C1609       C  0.57055276  0.98358968  0.94266595     0.75600
C1610       C  0.56377566  0.93443154  0.99103304     0.78000
Cd1611     Cd  0.55844866  0.96931295  0.00318373     1.37500
O1612       O  0.58268394  0.99209958  0.53925321    -0.57000
O1613       O  0.57766841  0.95092652  0.00296757    -0.55800
C1614       C  0.52649672  0.97979916  0.00571648     0.78000
O1615       O  0.54623084  0.93279713  0.98801030    -0.58200
O1616       O  0.55784091  0.96345303  0.55511397    -0.56600
O1617       O  0.55356397  0.96824742  0.94951830    -0.56600
O1618       O  0.54743609  0.99584575  0.50262502    -0.55800
O1619       O  0.58267281  0.99237679  0.79421624    -0.57000
C1620       C  0.58893340  0.00342158  0.69040110     0.75600
O1621       O  0.55915275  0.02448715  0.74806108    -0.58100
C1622       C  0.58187853  0.00408866  0.81478485     0.75600
C1623       C  0.62677294  0.04455865  0.77252132     0.78000
Cd1624     Cd  0.58651775  0.01550019  0.75271946     1.37500
O1625       O  0.58643199  0.99157602  0.71259610    -0.57000
O1626       O  0.62071666  0.02566272  0.76835380    -0.55800
C1627       C  0.54476043  0.00595463  0.75092256     0.78000
O1628       O  0.61496537  0.05104979  0.76316940    -0.58200
O1629       O  0.59178669  0.02106822  0.69754823    -0.56600
O1630       O  0.58286677  0.02062462  0.80620857    -0.56600
O1631       O  0.55013081  0.99255690  0.75392984    -0.55800
O1632       O  0.41509177  0.99667844  0.79647652    -0.57000
C1633       C  0.41780216  0.99082042  0.69533389     0.75600
O1634       O  0.44459197  0.96587878  0.75581835    -0.58100
C1635       C  0.41339606  0.98455156  0.81781929     0.75600
C1636       C  0.37759066  0.93986134  0.74162316     0.78000
Cd1637     Cd  0.41690614  0.97490672  0.75492095     1.37500
O1638       O  0.41776758  0.00097370  0.71870107    -0.57000
O1639       O  0.37955011  0.95624260  0.75320800    -0.55800
C1640       C  0.45903050  0.98445863  0.75631551     0.78000
O1641       O  0.39379079  0.93873912  0.73884146    -0.58200
O1642       O  0.41755279  0.97418161  0.70029536    -0.56600
O1643       O  0.41261554  0.96797113  0.80959490    -0.56600
O1644       O  0.45360812  0.99787903  0.75707113    -0.55800
O1645       O  0.74928773  0.08143354  0.87334119    -0.57000
C1646       C  0.75155989  0.09385481  0.77102340     0.75600
O1647       O  0.72068797  0.10982533  0.82447045    -0.58100
C1648       C  0.74690673  0.09174678  0.89452360     0.75600
C1649       C  0.79251385  0.13619269  0.83409545     0.78000
Cd1650     Cd  0.75036133  0.10428966  0.83258507     1.37500
O1651       O  0.75276338  0.08297021  0.79224276    -0.57000
O1652       O  0.78693804  0.11726493  0.83471003    -0.55800
C1653       C  0.70811147  0.09055455  0.82290167     0.78000
O1654       O  0.77825759  0.14068983  0.83314168    -0.58200
O1655       O  0.75019903  0.10937773  0.77896068    -0.56600
O1656       O  0.74617851  0.10757579  0.88652543    -0.56600
O1657       O  0.71526020  0.07871443  0.82785511    -0.55800
O1658       O  0.92063470  0.25528465  0.79385196    -0.57000
C1659       C  0.91968793  0.24701462  0.89310601     0.75600
O1660       O  0.89335198  0.19505878  0.83022938    -0.58100
C1661       C  0.92252717  0.24551707  0.77147342     0.75600
C1662       C  0.96250040  0.24212150  0.84647033     0.78000
Cd1663     Cd  0.92076984  0.23208497  0.83355070     1.37500
O1664       O  0.92023999  0.25747715  0.87005250    -0.57000
O1665       O  0.95692519  0.25438995  0.83666348    -0.55800
C1666       C  0.87876012  0.19903682  0.83118354     0.78000
O1667       O  0.94849091  0.22337548  0.84802623    -0.58200
O1668       O  0.91856125  0.22992989  0.88776874    -0.56600
O1669       O  0.92462116  0.23025779  0.77814929    -0.56600
O1670       O  0.88389416  0.21778150  0.83343640    -0.55800
O1671       O  0.91874277  0.25476064  0.62096867    -0.57000
C1672       C  0.90433418  0.25321557  0.52087466     0.75600
O1673       O  0.85742816  0.22500094  0.58743765    -0.58100
C1674       C  0.90904873  0.25585205  0.64397224     0.75600
C1675       C  0.90134092  0.29485176  0.57565390     0.78000
Cd1676     Cd  0.89357670  0.25383441  0.58307241     1.37500
O1677       O  0.91584969  0.25327260  0.54228602    -0.57000
O1678       O  0.91515886  0.29041062  0.58142893    -0.55800
C1679       C  0.86248122  0.21124786  0.58382441     0.78000
O1680       O  0.88289286  0.28012557  0.57559526    -0.58200
O1681       O  0.88815336  0.25316031  0.52869700    -0.56600
O1682       O  0.89296392  0.25671378  0.63834728    -0.56600
O1683       O  0.88133863  0.21765377  0.58010975    -0.55800
O1684       O  0.74864881  0.08204162  0.54234904    -0.57000
C1685       C  0.76059159  0.08483702  0.64245394     0.75600
O1686       O  0.77455714  0.05081808  0.59441977    -0.58100
C1687       C  0.75819440  0.07939563  0.52050138     0.75600
C1688       C  0.80233211  0.12364073  0.58157009     0.78000
Cd1689     Cd  0.77078043  0.08130440  0.58211550     1.37500
O1690       O  0.74941969  0.08508363  0.62071113    -0.57000
O1691       O  0.78335330  0.11742682  0.58278839    -0.55800
C1692       C  0.75538020  0.03979923  0.59944010     0.78000
O1693       O  0.80736673  0.10971746  0.58056518    -0.58200
O1694       O  0.77642880  0.08391696  0.63534758    -0.56600
O1695       O  0.77286817  0.07639669  0.52756053    -0.56600
O1696       O  0.74415601  0.04722005  0.59184603    -0.55800
O1697       O  0.92298336  0.67919385  0.62930101    -0.57000
C1698       C  0.92937473  0.68875118  0.52887482     0.75600
O1699       O  0.89677034  0.70945234  0.58315386    -0.58100
C1700       C  0.92269359  0.69101973  0.65008612     0.75600
C1701       C  0.96642228  0.73036510  0.60661760     0.78000
Cd1702     Cd  0.92545667  0.70187973  0.58853449     1.37500
O1703       O  0.92487288  0.67686696  0.55156751    -0.57000
O1704       O  0.95925512  0.71116662  0.60429022    -0.55800
C1705       C  0.88291529  0.69068822  0.58612890     0.78000
O1706       O  0.95524384  0.73750070  0.59677197    -0.58200
O1707       O  0.93313498  0.70691386  0.53435310    -0.56600
O1708       O  0.92269255  0.70712728  0.64166407    -0.56600
O1709       O  0.88913051  0.67797479  0.58957196    -0.55800
O1710       O  0.75300685  0.67368956  0.62702520    -0.57000
C1711       C  0.75625130  0.66422520  0.52527807     0.75600
O1712       O  0.78078278  0.64187672  0.59090057    -0.58100
C1713       C  0.75077730  0.66179322  0.64900778     0.75600
C1714       C  0.71157941  0.62120404  0.56690971     0.78000
Cd1715     Cd  0.75256864  0.65033183  0.58625215     1.37500
O1716       O  0.75585259  0.67536788  0.54709595    -0.57000
O1717       O  0.71754619  0.63974727  0.57391142    -0.55800
C1718       C  0.79483048  0.66044151  0.58692842     0.78000
O1719       O  0.72381343  0.61460485  0.57333805    -0.58200
O1720       O  0.75558586  0.64758255  0.53231138    -0.56600
O1721       O  0.74823101  0.64430623  0.64164124    -0.56600
O1722       O  0.78888528  0.67332200  0.58293240    -0.55800
O1723       O  0.75377520  0.67902755  0.79817861    -0.57000
C1724       C  0.76456007  0.68670152  0.89777648     0.75600
O1725       O  0.81506503  0.71146381  0.83306728    -0.58100
C1726       C  0.76450910  0.68954101  0.77581805     0.75600
C1727       C  0.77516498  0.73833371  0.85047396     0.78000
Cd1728     Cd  0.77848736  0.70248547  0.83781783     1.37500
O1729       O  0.75388136  0.67662355  0.87469148    -0.57000
O1730       O  0.76103363  0.72256691  0.83722762    -0.55800
C1731       C  0.81096650  0.69300633  0.83658225     0.78000
O1732       O  0.79203894  0.73873641  0.85468769    -0.58200
O1733       O  0.78065648  0.70341155  0.89238866    -0.56600
O1734       O  0.78075239  0.70607964  0.78254281    -0.56600
O1735       O  0.79233138  0.67992607  0.84025102    -0.55800
O1736       O  0.92580992  0.68195996  0.79841976    -0.57000
C1737       C  0.91820252  0.66831508  0.90001582     0.75600
O1738       O  0.86925847  0.65080499  0.84141797    -0.58100
C1739       C  0.91448606  0.66991768  0.77715398     0.75600
C1740       C  0.91645368  0.62770097  0.82541475     0.78000
Cd1741     Cd  0.90500145  0.65803721  0.83812191     1.37500
O1742       O  0.92861974  0.68004262  0.87837896    -0.57000
O1743       O  0.92910138  0.64647687  0.83085160    -0.55800
C1744       C  0.87401113  0.66957932  0.83886970     0.78000
O1745       O  0.89751857  0.62210136  0.82813279    -0.58200
O1746       O  0.90223337  0.65169312  0.89244858    -0.56600
O1747       O  0.89910748  0.65310527  0.78489659    -0.56600
O1748       O  0.89289632  0.68244252  0.83639391    -0.55800
O1749       O  0.67385102  0.74926402  0.95527331    -0.57000
C1750       C  0.68264511  0.75852085  0.85664377     0.75600
O1751       O  0.70088842  0.80982980  0.92196793    -0.58100
C1752       C  0.68465787  0.75945783  0.97812903     0.75600
C1753       C  0.73372293  0.77506307  0.90457336     0.78000
Cd1754     Cd  0.69613943  0.77455592  0.91692553     1.37500
O1755       O  0.67262079  0.74774195  0.87931007    -0.57000
O1756       O  0.71845298  0.75984281  0.91641931    -0.55800
C1757       C  0.68205780  0.80395778  0.91737108     0.78000
O1758       O  0.73281233  0.79140617  0.90181738    -0.58200
O1759       O  0.69800247  0.77582291  0.86260614    -0.56600
O1760       O  0.70120231  0.77580453  0.97239875    -0.56600
O1761       O  0.67049102  0.78495060  0.91287260    -0.55800
O1762       O  0.65757756  0.91601668  0.87505492    -0.57000
C1763       C  0.65096323  0.90339921  0.97544219     0.75600
O1764       O  0.60053879  0.87796145  0.92821627    -0.58100
C1765       C  0.64557814  0.90551351  0.85332759     0.75600
C1766       C  0.65155102  0.86174352  0.91347294     0.78000
Cd1767     Cd  0.63727030  0.89097564  0.91508075     1.37500
O1768       O  0.66118959  0.91507143  0.95356051    -0.57000
O1769       O  0.66332402  0.88091657  0.91608638    -0.55800
C1770       C  0.60341984  0.89599096  0.93270968     0.78000
O1771       O  0.63250397  0.85571097  0.91088357    -0.58200
O1772       O  0.63541847  0.88634553  0.96861756    -0.56600
O1773       O  0.62973163  0.88896741  0.86076811    -0.56600
O1774       O  0.62080277  0.91086985  0.92590102    -0.55800
O1775       O  0.67672494  0.75408764  0.62725431    -0.57000
C1776       C  0.66376347  0.74957170  0.72831712     0.75600
O1777       O  0.63996251  0.77694326  0.66534562    -0.58100
C1778       C  0.66451072  0.75028981  0.60487145     0.75600
C1779       C  0.61928728  0.70999242  0.67357468     0.78000
Cd1780     Cd  0.65157117  0.75130358  0.66675434     1.37500
O1781       O  0.67555014  0.75151673  0.70625460    -0.57000
O1782       O  0.63773988  0.71519291  0.66801861    -0.55800
C1783       C  0.65780972  0.79233625  0.66906799     0.78000
O1784       O  0.61485634  0.72427781  0.67311733    -0.58200
O1785       O  0.64706037  0.74874121  0.72138866    -0.56600
O1786       O  0.64665015  0.74661418  0.61151810    -0.56600
O1787       O  0.67225312  0.78840453  0.67132898    -0.55800
O1788       O  0.65637816  0.91607556  0.62569536    -0.57000
C1789       C  0.66858565  0.92025900  0.72622095     0.75600
O1790       O  0.69404329  0.89315513  0.67109174    -0.58100
C1791       C  0.66724745  0.91607869  0.60350019     0.75600
C1792       C  0.71230359  0.95927796  0.65378265     0.78000
Cd1793     Cd  0.68125053  0.91790761  0.66500609     1.37500
O1794       O  0.65612335  0.91552257  0.70392424    -0.57000
O1795       O  0.69420681  0.95406378  0.66169454    -0.55800
C1796       C  0.67623690  0.87742821  0.66941586     0.78000
O1797       O  0.71710715  0.94526067  0.65412340    -0.58200
O1798       O  0.68666484  0.92461305  0.71963508    -0.56600
O1799       O  0.68357856  0.91609067  0.61030177    -0.56600
O1800       O  0.66157676  0.88090308  0.66570007    -0.55800
C1801       C  0.66207927  0.81397096  0.67054246     0.00700
C1802       C  0.68257085  0.82995675  0.67278532    -0.11200
C1803       C  0.68768366  0.85063919  0.67354598     0.02900
C1804       C  0.67212696  0.85586257  0.67114038     0.00600
C1805       C  0.65162434  0.83984955  0.66986170    -0.11100
C1806       C  0.64649034  0.81919891  0.66996682     0.02800
H1807       H  0.69480370  0.82634035  0.67404034     0.15800
H1808       H  0.63934654  0.84340977  0.66886060     0.15800
C1809       C  0.62505702  0.80387079  0.67024936     0.37400
C1810       C  0.70897930  0.86595716  0.67728580     0.37300
N1811       N  0.60785003  0.79168085  0.67080404    -0.42900
N1812       N  0.72607895  0.87806583  0.68061966    -0.42900
C1813       C  0.65031119  0.91166202  0.82072639     0.00700
C1814       C  0.67041827  0.92634005  0.81289416    -0.11200
C1815       C  0.67649329  0.93020312  0.78230746     0.02900
C1816       C  0.66221640  0.91955690  0.75856537     0.00600
C1817       C  0.64173820  0.90618809  0.76632848    -0.11100
C1818       C  0.63573301  0.90200685  0.79691798     0.02800
H1819       H  0.68175581  0.93413699  0.83070320     0.15800
H1820       H  0.63055408  0.89803257  0.74845840     0.15800
C1821       C  0.61462589  0.88715580  0.80295460     0.37400
C1822       C  0.69763919  0.94484050  0.77609740     0.37300
N1823       N  0.59774973  0.87514479  0.80781241    -0.42900
N1824       N  0.71460708  0.95649685  0.77113530    -0.42900
C1825       C  0.65282306  0.91260199  0.50770422     0.00700
C1826       C  0.63700396  0.90499565  0.52926775    -0.11200
C1827       C  0.64122556  0.90680606  0.56062511     0.02900
C1828       C  0.66168971  0.91610972  0.57096991     0.00600
C1829       C  0.67752967  0.92470710  0.54936772    -0.11100
C1830       C  0.67327697  0.92323436  0.51800178     0.02800
H1831       H  0.62119954  0.89695968  0.52154038     0.15800
H1832       H  0.69335235  0.93222890  0.55697860     0.15800
C1833       C  0.69011699  0.93159763  0.49688505     0.37400
C1834       C  0.62421657  0.89777967  0.58138080     0.37300
N1835       N  0.70350238  0.93830161  0.47976994    -0.42900
N1836       N  0.61050274  0.89050387  0.59788361    -0.42900
C1837       C  0.67391716  0.81846702  0.91678341     0.00700
C1838       C  0.68775748  0.83962176  0.91621110    -0.11200
C1839       C  0.68097760  0.85390918  0.91444322     0.02900
C1840       C  0.65970526  0.84720858  0.91401215     0.00600
C1841       C  0.64586510  0.82603551  0.91470611    -0.11100
C1842       C  0.65265470  0.81173195  0.91582500     0.02800
H1843       H  0.70406618  0.84509892  0.91647990     0.15800
H1844       H  0.62955328  0.82053223  0.91434026     0.15800
C1845       C  0.63725002  0.79027200  0.91586510     0.37400
C1846       C  0.69643243  0.87525435  0.91212547     0.37300
N1847       N  0.62484158  0.77309890  0.91569056    -0.42900
N1848       N  0.70898775  0.89228238  0.91001981    -0.42900
C1849       C  0.68318933  0.75857249  0.51028691     0.00700
C1850       C  0.66269000  0.74508775  0.51796455    -0.11200
C1851       C  0.65650428  0.74114207  0.54852845     0.02900
C1852       C  0.67087808  0.75107366  0.57243248     0.00600
C1853       C  0.69161083  0.76321106  0.56482161    -0.11100
C1854       C  0.69787052  0.76684237  0.53422970     0.02800
H1855       H  0.65128166  0.73798720  0.50005659     0.15800
H1856       H  0.70295345  0.77042408  0.58280366     0.15800
C1857       C  0.71951472  0.77883310  0.52827083     0.37400
C1858       C  0.63533960  0.72650059  0.55460349     0.37300
N1859       N  0.73690379  0.78826334  0.52367771    -0.42900
N1860       N  0.61842658  0.71460249  0.55945445    -0.42900
C1861       C  0.67717486  0.75214427  0.82435998     0.00700
C1862       C  0.69315395  0.75944380  0.80309105    -0.11200
C1863       C  0.68924016  0.75780948  0.77167644     0.02900
C1864       C  0.66888893  0.74870845  0.76087067     0.00600
C1865       C  0.65284047  0.74008647  0.78217029    -0.11100
C1866       C  0.65679363  0.74167310  0.81366390     0.02800
H1867       H  0.70890466  0.76734910  0.81109986     0.15800
H1868       H  0.63709791  0.73276138  0.77425533     0.15800
C1869       C  0.63972779  0.73390559  0.83434765     0.37400
C1870       C  0.70649166  0.76705062  0.75138203     0.37300
N1871       N  0.62604037  0.72771316  0.85090074    -0.42900
N1872       N  0.72037345  0.77454958  0.73520901    -0.42900
C1873       C  0.77096561  0.75411123  0.86333746     0.00700
C1874       C  0.77134321  0.75625249  0.89522754    -0.11200
C1875       C  0.76092603  0.76512415  0.90948481     0.02900
C1876       C  0.75049368  0.77259845  0.89170959     0.00600
C1877       C  0.75227174  0.77272272  0.85982157    -0.11100
C1878       C  0.76216214  0.76329800  0.84554983     0.02800
H1879       H  0.77806720  0.74921474  0.90912662     0.15800
H1880       H  0.74423647  0.77840071  0.84594297     0.15800
C1881       C  0.76215336  0.76222054  0.81267928     0.37400
C1882       C  0.76000951  0.76527611  0.94234478     0.37300
N1883       N  0.76223688  0.76141108  0.78632642    -0.42900
N1884       N  0.75925259  0.76548803  0.96868149    -0.42900
C1885       C  0.82695935  0.68683363  0.83680130     0.00700
C1886       C  0.84765547  0.70200910  0.83519782    -0.11200
C1887       C  0.86325172  0.69697536  0.83636726     0.02900
C1888       C  0.85828143  0.67614532  0.83846211     0.00600
C1889       C  0.83758662  0.66102440  0.83997756    -0.11100
C1890       C  0.82204692  0.66606923  0.83941887     0.02800
H1891       H  0.85175553  0.71798302  0.83355580     0.15800
H1892       H  0.83341932  0.64504406  0.84177800     0.15800
C1893       C  0.80125774  0.64938031  0.84192867     0.37400
C1894       C  0.88410510  0.71373342  0.83620465     0.37300
N1895       N  0.78464557  0.63595617  0.84412881    -0.42900
N1896       N  0.90072356  0.72734610  0.83632424    -0.42900
C1897       C  0.75209760  0.66840981  0.68164368     0.00700
C1898       C  0.76248987  0.68949323  0.68866359    -0.11200
C1899       C  0.76602675  0.69664757  0.71897706     0.02900
C1900       C  0.75899725  0.68263344  0.74339617     0.00600
C1901       C  0.74777785  0.66155515  0.73646690    -0.11100
C1902       C  0.74438540  0.65436820  0.70608469     0.02800
H1903       H  0.76842825  0.70053279  0.67037441     0.15800
H1904       H  0.74218610  0.65057796  0.75486958     0.15800
C1905       C  0.73284440  0.63249286  0.70082455     0.37400
C1906       C  0.77679193  0.71853488  0.72430260     0.37300
N1907       N  0.72355114  0.61494941  0.69669894    -0.42900
N1908       N  0.78538062  0.73605558  0.72874434    -0.42900
C1909       C  0.75592679  0.66884055  0.99213958     0.00700
C1910       C  0.74732826  0.65371282  0.96900970    -0.11200
C1911       C  0.74874658  0.65899949  0.93812598     0.02900
C1912       C  0.75937228  0.67983387  0.92981197     0.00600
C1913       C  0.76718694  0.69490838  0.95301308    -0.11100
C1914       C  0.76536376  0.68964812  0.98384857     0.02800
H1915       H  0.73961703  0.63764691  0.97503553     0.15800
H1916       H  0.77513686  0.71098849  0.94701931     0.15800
C1917       C  0.77406885  0.70600561  0.00625234     0.37400
C1918       C  0.73991891  0.64273108  0.91558436     0.37300
N1919       N  0.79248146  0.71996300  0.51961718    -0.42900
N1920       N  0.73272700  0.62963796  0.89760575    -0.42900
C1921       C  0.86044371  0.68335269  0.58605110     0.00700
C1922       C  0.84688370  0.66332483  0.59625054    -0.11200
C1923       C  0.82558466  0.65530204  0.59646141     0.02900
C1924       C  0.81723826  0.66746952  0.58663870     0.00600
C1925       C  0.83081154  0.68745532  0.57634527    -0.11100
C1926       C  0.85205745  0.69535852  0.57574373     0.02800
H1927       H  0.85292611  0.65375362  0.60420781     0.15800
H1928       H  0.82480673  0.69702964  0.56825796     0.15800
C1929       C  0.86467530  0.71554413  0.56334683     0.37400
C1930       C  0.81285103  0.63460704  0.60702239     0.37300
N1931       N  0.87468816  0.73167645  0.55317081    -0.42900
N1932       N  0.80277065  0.61796840  0.61538803    -0.42900
C1933       C  0.92902108  0.68318179  0.99599783     0.00700
C1934       C  0.93939432  0.69853488  0.97428609    -0.11200
C1935       C  0.93705510  0.69400071  0.94298215     0.02900
C1936       C  0.92374490  0.67368878  0.93274694     0.00600
C1937       C  0.91415417  0.65818713  0.95460720    -0.11100
C1938       C  0.91677298  0.66270062  0.98591482     0.02800
H1939       H  0.94900508  0.71429952  0.98179919     0.15800
H1940       H  0.90407220  0.64248335  0.94725545     0.15800
C1941       C  0.90562189  0.64619783  0.00700632     0.37400
C1942       C  0.94780279  0.71073740  0.92211732     0.37300
N1943       N  0.88802980  0.63475140  0.52298001    -0.42900
N1944       N  0.95648613  0.72418705  0.90547053    -0.42900
C1945       C  0.92219387  0.68618191  0.68270513     0.00700
C1946       C  0.91379202  0.66560650  0.69092839    -0.11200
C1947       C  0.91174359  0.65999546  0.72151292     0.02900
C1948       C  0.91842975  0.67524311  0.74465637     0.00600
C1949       C  0.92781260  0.69591465  0.73644937    -0.11100
C1950       C  0.92961431  0.70151809  0.70580959     0.02800
H1951       H  0.90830092  0.65376582  0.67341618     0.15800
H1952       H  0.93310049  0.70770357  0.75402439     0.15800
C1953       C  0.93917154  0.72310350  0.69901768     0.37400
C1954       C  0.90285041  0.63845443  0.72821934     0.37300
N1955       N  0.94679260  0.74043166  0.69385067    -0.42900
N1956       N  0.89569185  0.62115398  0.73326801    -0.42900
C1957       C  0.72616811  0.98059484  0.64319425     0.00700
C1958       C  0.72055999  0.99535371  0.65014287    -0.11200
C1959       C  0.73012123  0.01456640  0.63648815     0.02900
C1960       C  0.74611180  0.01977217  0.61537631     0.00600
C1961       C  0.75279155  0.00562076  0.60982365    -0.11100
C1962       C  0.74283651  0.98604575  0.62327004     0.02800
H1963       H  0.70805892  0.99165211  0.66571160     0.15800
H1964       H  0.76518414  0.00950381  0.59399808     0.15800
C1965       C  0.74926388  0.97155477  0.61482107     0.37400
C1966       C  0.72300831  0.02857638  0.64486264     0.37300
N1967       N  0.75435400  0.95988382  0.60801144    -0.42900
N1968       N  0.71703934  0.03953879  0.65171507    -0.42900
C1969       C  0.84731507  0.18877648  0.58353570     0.00700
C1970       C  0.82638360  0.18223428  0.58126235    -0.11200
C1971       C  0.81162529  0.16131557  0.58008636     0.02900
C1972       C  0.81759367  0.14613020  0.58163961     0.00600
C1973       C  0.83855302  0.15269030  0.58381332    -0.11100
C1974       C  0.85332456  0.17363277  0.58472362     0.02800
H1975       H  0.82147013  0.19351915  0.57996428     0.15800
H1976       H  0.84348551  0.14141953  0.58502622     0.15800
C1977       C  0.87452736  0.17896870  0.58731461     0.37400
C1978       C  0.79050045  0.15611742  0.57672848     0.37300
N1979       N  0.89155210  0.18337091  0.58933567    -0.42900
N1980       N  0.77356878  0.15190980  0.57395968    -0.42900
C1981       C  0.92162335  0.25094173  0.73899627     0.00700
C1982       C  0.92903940  0.24316857  0.71609012    -0.11200
C1983       C  0.92607545  0.24537862  0.68498841     0.02900
C1984       C  0.91548947  0.25563791  0.67610751     0.00600
C1985       C  0.90900280  0.26429020  0.69894609    -0.11100
C1986       C  0.91191508  0.26206438  0.72999224     0.02800
H1987       H  0.93657572  0.23465419  0.72247594     0.15800
H1988       H  0.90093906  0.27228885  0.69254422     0.15800
C1989       C  0.90344740  0.27019302  0.75185112     0.37400
C1990       C  0.93267086  0.23556274  0.66295249     0.37300
N1991       N  0.89651482  0.27667717  0.76917707    -0.42900
N1992       N  0.93786942  0.22754539  0.64541257    -0.42900
C1993       C  0.91425904  0.26076372  0.98666513     0.00700
C1994       C  0.92535215  0.25098458  0.97921382    -0.11200
C1995       C  0.92828938  0.24746711  0.94881023     0.02900
C1996       C  0.92002269  0.25380630  0.92500635     0.00600
C1997       C  0.91064148  0.26535116  0.93234544    -0.11100
C1998       C  0.90766769  0.26885415  0.96290283     0.02800
H1999       H  0.93091960  0.24515835  0.99719350     0.15800
H2000       H  0.90477680  0.27081832  0.91427116     0.15800
C2001       C  0.89781867  0.28075783  0.96911818     0.37400
C2002       C  0.93979534  0.23718215  0.94279976     0.37300
N2003       N  0.89000512  0.29039663  0.97385391    -0.42900
N2004       N  0.94904565  0.22897341  0.93802999    -0.42900
C2005       C  0.81466247  0.15212670  0.83378889     0.00700
C2006       C  0.82053989  0.17133101  0.82108471    -0.11200
C2007       C  0.84122226  0.18657515  0.81937364     0.02900
C2008       C  0.85672741  0.18280584  0.83049154     0.00600
C2009       C  0.85088352  0.16352948  0.84286862    -0.11100
C2010       C  0.83017219  0.14837337  0.84496157     0.02800
H2011       H  0.80892919  0.17440959  0.81207747     0.15800
H2012       H  0.86251265  0.16051375  0.85196362     0.15800
C2013       C  0.82536405  0.12958498  0.86027977     0.37400
C2014       C  0.84600643  0.20574717  0.80531501     0.37300
N2015       N  0.82159830  0.11464438  0.87284080    -0.42900
N2016       N  0.84973474  0.22106978  0.79401783    -0.42900
C2017       C  0.74592416  0.08617942  0.92721850     0.00700
C2018       C  0.75420994  0.07394873  0.93629550    -0.11200
C2019       C  0.75661923  0.07100781  0.96723052     0.02900
C2020       C  0.75083430  0.08056898  0.98993958     0.00600
C2021       C  0.74074189  0.09113981  0.98084766    -0.11100
C2022       C  0.73816866  0.09393168  0.94989536     0.02800
H2023       H  0.75961488  0.06730806  0.91921112     0.15800
H2024       H  0.73561645  0.09804495  0.99792272     0.15800
C2025       C  0.72756717  0.10486902  0.94215843     0.37400
C2026       C  0.76518585  0.05818032  0.97488273     0.37300
N2027       N  0.71900887  0.11354547  0.93583731    -0.42900
N2028       N  0.77197584  0.04782980  0.98100509    -0.42900
C2029       C  0.75578771  0.08529000  0.67496602     0.00700
C2030       C  0.76370620  0.07698410  0.69603358    -0.11200
C2031       C  0.76164363  0.07861252  0.72738104     0.02900
C2032       C  0.75185858  0.08918455  0.73828366     0.00600
C2033       C  0.74296007  0.09654359  0.71719886    -0.11100
C2034       C  0.74451042  0.09436003  0.68574556     0.02800
H2035       H  0.77182801  0.06935574  0.68798695     0.15800
H2036       H  0.73490089  0.10421844  0.72531097     0.15800
C2037       C  0.73488035  0.10203238  0.66528675     0.37400
C2038       C  0.77043357  0.06996291  0.74761187     0.37300
N2039       N  0.72698575  0.10800701  0.64892109    -0.42900
N2040       N  0.77739173  0.06289323  0.76373707    -0.42900
C2041       C  0.64645473  0.05783821  0.78869918     0.00700
C2042       C  0.65915764  0.07828878  0.77995056    -0.11200
C2043       C  0.67894866  0.09010782  0.79252864     0.02900
C2044       C  0.68615512  0.08144460  0.81443526     0.00600
C2045       C  0.67266754  0.06169584  0.82508234    -0.11100
C2046       C  0.65307312  0.04993029  0.81262255     0.02800
H2047       H  0.65406761  0.08468129  0.76216164     0.15800
H2048       H  0.67778083  0.05502736  0.84245677     0.15800
C2049       C  0.64025085  0.02968244  0.82486445     0.37400
C2050       C  0.69194969  0.11044504  0.78096222     0.37300
N2051       N  0.63023467  0.01350661  0.83490955    -0.42900
N2052       N  0.70233103  0.12676639  0.77164993    -0.42900
C2053       C  0.52273423  0.00014819  0.75152999     0.00700
C2054       C  0.51765740  0.01560792  0.75525581    -0.11200
C2055       C  0.49722706  0.01098514  0.75696424     0.02900
C2056       C  0.48109406  0.99029195  0.75540243     0.00600
C2057       C  0.48619237  0.97482475  0.75161112    -0.11100
C2058       C  0.50662534  0.97949520  0.74933523     0.02800
H2059       H  0.52973445  0.03148671  0.75691069     0.15800
H2060       H  0.47413666  0.95894842  0.74982051     0.15800
C2061       C  0.51034709  0.96268965  0.74366600     0.37400
C2062       C  0.49357468  0.02803302  0.75985818     0.37300
N2063       N  0.51321437  0.94917317  0.73891476    -0.42900
N2064       N  0.49084148  0.04183124  0.76192963    -0.42900
C2065       C  0.58033503  0.98666539  0.59411528     0.00700
C2066       C  0.57424523  0.97137848  0.61640410    -0.11200
C2067       C  0.57793066  0.97633479  0.64768205     0.02900
C2068       C  0.58770706  0.99709248  0.65753380     0.00600
C2069       C  0.59467531  0.01235913  0.63509079    -0.11100
C2070       C  0.59117425  0.00742151  0.60385690     0.02800
H2071       H  0.56608460  0.95538111  0.60943289     0.15800
H2072       H  0.60233789  0.02836418  0.64199392     0.15800
C2073       C  0.59772070  0.02410376  0.58267415     0.37400
C2074       C  0.57056222  0.95966627  0.66901400     0.37300
N2075       N  0.60296975  0.03758569  0.56590112    -0.42900
N2076       N  0.56463341  0.94621202  0.68596467    -0.42900
C2077       C  0.57508784  0.98944873  0.91023103     0.00700
C2078       C  0.56390235  0.97426984  0.88804687    -0.11200
C2079       C  0.56589870  0.97881100  0.85704232     0.02900
C2080       C  0.57970067  0.99878965  0.84742479     0.00600
C2081       C  0.59091744  0.01412699  0.86941988    -0.11100
C2082       C  0.58874635  0.00963627  0.90068822     0.02800
H2083       H  0.55306146  0.95876054  0.89495477     0.15800
H2084       H  0.60130786  0.02968143  0.86213970     0.15800
C2085       C  0.59978517  0.02615119  0.92235991     0.37400
C2086       C  0.55232628  0.96315597  0.83572625     0.37300
N2087       N  0.60850275  0.03937290  0.93979328    -0.42900
N2088       N  0.54128366  0.95081604  0.81853745    -0.42900
C2089       C  0.56885632  0.91923408  0.97805816     0.00700
C2090       C  0.56663831  0.91579149  0.94636329    -0.11200
C2091       C  0.57684432  0.90706755  0.93098655     0.02900
C2092       C  0.58824810  0.90016681  0.94759444     0.00600
C2093       C  0.58904003  0.90203496  0.97952124    -0.11100
C2094       C  0.58004568  0.91203867  0.99472552     0.02800
H2095       H  0.55873323  0.92192476  0.93318167     0.15800
H2096       H  0.59830694  0.89734569  0.99237583     0.15800
C2097       C  0.58388090  0.91612692  0.02700479     0.37400
C2098       C  0.57720228  0.90735569  0.89810170     0.37300
N2099       N  0.57146341  0.90959837  0.54631616    -0.42900
N2100       N  0.57775844  0.90792062  0.87174912    -0.42900
C2101       C  0.51094579  0.98657606  0.00597986     0.00700
C2102       C  0.49376544  0.97986755  0.51505272    -0.11200
C2103       C  0.47979757  0.98701843  0.51652907     0.02900
C2104       C  0.48085129  0.99894078  0.00364558     0.00600
C2105       C  0.50146813  0.01326817  0.00937412    -0.11100
C2106       C  0.51645317  0.00744049  0.01030839     0.02800
H2107       H  0.48858547  0.96387856  0.52073819     0.15800
H2108       H  0.50602374  0.02934913  0.01334763     0.15800
C2109       C  0.53732811  0.02333005  0.01598862     0.37400
C2110       C  0.45930099  0.97282455  0.52654072     0.37300
N2111       N  0.55405772  0.03613287  0.02031319    -0.42900
N2112       N  0.44290045  0.96147934  0.53466523    -0.42900
C2113       C  0.41688775  0.00186381  0.91329753     0.00700
C2114       C  0.40919046  0.98123972  0.90496929    -0.11200
C2115       C  0.40754013  0.97515220  0.87427186     0.02900
C2116       C  0.41312343  0.98980200  0.85075149     0.00600
C2117       C  0.41979265  0.01028563  0.85911078    -0.11100
C2118       C  0.42190793  0.01643168  0.88988321     0.02800
H2119       H  0.40538850  0.96989063  0.92259363     0.15800
H2120       H  0.42407705  0.02175645  0.84156217     0.15800
C2121       C  0.42932562  0.03782637  0.89662483     0.37400
C2122       C  0.40060750  0.95380367  0.86795782     0.37300
N2123       N  0.43528189  0.05499819  0.90184363    -0.42900
N2124       N  0.39519807  0.93669703  0.86313360    -0.42900
C2125       C  0.42199648  0.00807585  0.60098974     0.00700
C2126       C  0.42958512  0.02331102  0.62398208    -0.11200
C2127       C  0.42776473  0.01821474  0.65493171     0.02900
C2128       C  0.41814482  0.99743700  0.66343110     0.00600
C2129       C  0.40992643  0.98220417  0.64043723    -0.11100
C2130       C  0.41174503  0.98729925  0.60951502     0.02800
H2131       H  0.43758140  0.03935440  0.61772163     0.15800
H2132       H  0.40249090  0.96616914  0.64659823     0.15800
C2133       C  0.40422280  0.97090818  0.58715016     0.37400
C2134       C  0.43716097  0.03463750  0.67715260     0.37300
N2135       N  0.39824800  0.95776372  0.56924994    -0.42900
N2136       N  0.44480960  0.04789558  0.69480464    -0.42900
C2137       C  0.52533897  0.51780623  0.99665095     0.00700
C2138       C  0.51832246  0.49732366  0.50119265    -0.11200
C2139       C  0.49764442  0.48196105  0.50287620     0.02900
C2140       C  0.48297442  0.48758801  0.99538288     0.00600
C2141       C  0.48981325  0.50637862  0.01056497    -0.11100
C2142       C  0.51062760  0.52132251  0.01148361     0.02800
H2143       H  0.53007582  0.49307989  0.50305514     0.15800
H2144       H  0.47888059  0.50929955  0.02231988     0.15800
C2145       C  0.51638358  0.53984332  0.02882261     0.37400
C2146       C  0.49336352  0.46115061  0.50678905     0.37300
N2147       N  0.52100359  0.55466487  0.04275864    -0.42900
N2148       N  0.49010340  0.44452400  0.50989327    -0.42900
C2149       C  0.69177585  0.60882947  0.55012509     0.00700
C2150       C  0.67869605  0.58786998  0.55601476    -0.11200
C2151       C  0.65912414  0.57694220  0.54206276     0.02900
C2152       C  0.65244318  0.58704716  0.52179884     0.00600
C2153       C  0.66629082  0.60743156  0.51419688    -0.11100
C2154       C  0.68561019  0.61825240  0.52788476     0.02800
H2155       H  0.68338654  0.58025744  0.57237909     0.15800
H2156       H  0.66174085  0.61530327  0.49805081     0.15800
C2157       C  0.69874891  0.63916189  0.51838681     0.37400
C2158       C  0.64594056  0.55575769  0.54998066     0.37300
N2159       N  0.70903580  0.65589524  0.51057168    -0.42900
N2160       N  0.63539043  0.53872207  0.55616246    -0.42900
C2161       C  0.58348873  0.64963411  0.71118595     0.00700
C2162       C  0.57482453  0.66245151  0.70995663    -0.11200
C2163       C  0.58522854  0.68171595  0.69540905     0.02900
C2164       C  0.60469687  0.68839412  0.68234110     0.00600
C2165       C  0.61200716  0.67454643  0.68092989    -0.11100
C2166       C  0.60169257  0.65548267  0.69474076     0.02800
H2167       H  0.56033608  0.65774645  0.72102560     0.15800
H2168       H  0.62638255  0.67883830  0.66972992     0.15800
C2169       C  0.61032535  0.64219917  0.69121192     0.37400
C2170       C  0.57569332  0.69424195  0.69412629     0.37300
N2171       N  0.61733467  0.63166821  0.68826447    -0.42900
N2172       N  0.56807240  0.70429415  0.69249767    -0.42900
C2173       C  0.58274239  0.59220598  0.84222277     0.00700
C2174       C  0.57580133  0.59994724  0.86579349    -0.11200
C2175       C  0.57959313  0.59791584  0.89663404     0.02900
C2176       C  0.58994086  0.58723200  0.90470539     0.00600
C2177       C  0.59779290  0.58043716  0.88110091    -0.11100
C2178       C  0.59463640  0.58311313  0.85025871     0.02800
H2179       H  0.56708450  0.60740687  0.86015101     0.15800
H2180       H  0.60616613  0.57261684  0.88672731     0.15800
C2181       C  0.60321505  0.57565447  0.82750775     0.37400
C2182       C  0.57205860  0.60640664  0.91940087     0.37300
N2183       N  0.61021711  0.56980949  0.80927971    -0.42900
N2184       N  0.56617676  0.61335236  0.93768338    -0.42900
C2185       C  0.57689239  0.58452260  0.65573327     0.00700
C2186       C  0.58583026  0.57264868  0.64809240    -0.11200
C2187       C  0.58916728  0.56962863  0.61759544     0.02900
C2188       C  0.58378240  0.57893250  0.59405711     0.00600
C2189       C  0.57570298  0.59155581  0.60189679    -0.11100
C2190       C  0.57211686  0.59432992  0.63232019     0.02800
H2191       H  0.58963310  0.56517834  0.66593214     0.15800
H2192       H  0.57166055  0.59889419  0.58415295     0.15800
C2193       C  0.56379911  0.60759526  0.63871251     0.37400
C2194       C  0.59815013  0.55692528  0.61137501     0.37300
N2195       N  0.55714470  0.61825826  0.64358337    -0.42900
N2196       N  0.60528948  0.54668487  0.60650984    -0.42900
C2197       C  0.48654847  0.48187389  0.74731368     0.00700
C2198       C  0.50518044  0.48923582  0.73193653    -0.11200
C2199       C  0.51933741  0.51035910  0.73082528     0.02900
C2200       C  0.51530156  0.52461164  0.74628057     0.00600
C2201       C  0.49673721  0.51722367  0.76167842    -0.11100
C2202       C  0.48242716  0.49621339  0.76224993     0.02800
H2203       H  0.50838170  0.47854125  0.71981096     0.15800
H2204       H  0.49345059  0.52789896  0.77367901     0.15800
C2205       C  0.46376204  0.48987831  0.77892888     0.37400
C2206       C  0.53722650  0.51701835  0.71202093     0.37300
N2207       N  0.44875395  0.48480079  0.79215368    -0.42900
N2208       N  0.55142811  0.52242565  0.69666174    -0.42900
C2209       C  0.41794516  0.41224794  0.65228252     0.00700
C2210       C  0.40489625  0.41991288  0.64461372    -0.11200
C2211       C  0.40112526  0.42251910  0.61401964     0.02900
C2212       C  0.41049229  0.41736266  0.59027373     0.00600
C2213       C  0.42188224  0.40787983  0.59795179    -0.11100
C2214       C  0.42567913  0.40530457  0.62843296     0.02800
H2215       H  0.39829752  0.42473682  0.66254597     0.15800
H2216       H  0.42878911  0.40336587  0.58007129     0.15800
C2217       C  0.43783096  0.39571517  0.63431177     0.37400
C2218       C  0.38761856  0.43053035  0.60783444     0.37300
N2219       N  0.44756010  0.38799582  0.63884310    -0.42900
N2220       N  0.37665480  0.43683133  0.60318219    -0.42900
C2221       C  0.42128713  0.41770335  0.84000846     0.00700
C2222       C  0.42920070  0.40942144  0.86123886    -0.11200
C2223       C  0.42712775  0.41115428  0.89265734     0.02900
C2224       C  0.41751510  0.42190198  0.90339923     0.00600
C2225       C  0.40836146  0.42894387  0.88226452    -0.11100
C2226       C  0.40984967  0.42661549  0.85079446     0.02800
H2227       H  0.43745962  0.40195906  0.85330874     0.15800
H2228       H  0.40040935  0.43666293  0.89032775     0.15800
C2229       C  0.40023010  0.43429068  0.83034159     0.37400
C2230       C  0.43591999  0.40268757  0.91323602     0.37300
N2231       N  0.39235451  0.44031329  0.81402998    -0.42900
N2232       N  0.44281840  0.39579116  0.92980137    -0.42900
C2233       C  0.98430623  0.25053725  0.85655814     0.00700
C2234       C  0.99806860  0.27088095  0.84849785    -0.11200
C2235       C  0.01748411  0.28192657  0.86170054     0.02900
C2236       C  0.02415778  0.27265740  0.88341979     0.00600
C2237       C  0.01126628  0.25171118  0.88964049    -0.11100
C2238       C  0.99138273  0.24064061  0.87663627     0.02800
H2239       H  0.99336093  0.27870162  0.83250754     0.15800
H2240       H  0.01632154  0.24424810  0.90571074     0.15800
C2241       C  0.97849874  0.21956589  0.88533508     0.37400
C2242       C  0.03003527  0.30300924  0.85249082     0.37300
N2243       N  0.96840877  0.20265522  0.89251870    -0.42900
N2244       N  0.03975016  0.31989700  0.84499264    -0.42900
C2245       C  0.31956499  0.40642672  0.93448992     0.00700
C2246       C  0.32362589  0.41966857  0.95973220    -0.11200
C2247       C  0.34300754  0.42934232  0.97420909     0.02900
C2248       C  0.35845364  0.42554051  0.96354590     0.00600
C2249       C  0.35484637  0.41379150  0.93686032    -0.11100
C2250       C  0.33581901  0.40449662  0.92216502     0.02800
H2251       H  0.31133267  0.42136919  0.96939994     0.15800
H2252       H  0.34926802  0.44214397  0.48705122     0.15800
C2253       C  0.33326949  0.39262057  0.89478627     0.37400
C2254       C  0.34619679  0.44183537  0.00100564     0.37300
N2255       N  0.33122761  0.38314688  0.87282031    -0.42900
N2256       N  0.34871912  0.45191079  0.02244000    -0.42900
C2257       C  0.14977144  0.33144948  0.91688294     0.00700
C2258       C  0.15570945  0.31646333  0.91653368    -0.11200
C2259       C  0.17642151  0.32182935  0.91517337     0.02900
C2260       C  0.19201162  0.34277838  0.91453285     0.00600
C2261       C  0.18606522  0.35772000  0.91395292    -0.11100
C2262       C  0.16536802  0.35236227  0.91495155     0.02800
H2263       H  0.14411764  0.30039913  0.91733501     0.15800
H2264       H  0.19766367  0.37377994  0.91293568     0.15800
C2265       C  0.16089028  0.36890949  0.91374124     0.37400
C2266       C  0.18099219  0.30532129  0.91405292     0.37300
N2267       N  0.15750013  0.38230357  0.91267603    -0.42900
N2268       N  0.18464881  0.29209626  0.91303907    -0.42900
C2269       C  0.24934775  0.32898430  0.75747830     0.00700
C2270       C  0.24046370  0.31406069  0.78027125    -0.11200
C2271       C  0.24316696  0.31942325  0.81137669     0.02900
C2272       C  0.25477551  0.34025400  0.82048704     0.00600
C2273       C  0.26381415  0.35516803  0.79771457    -0.11100
C2274       C  0.26140440  0.34977414  0.76661346     0.02800
H2275       H  0.23112963  0.29804630  0.77378915     0.15800
H2276       H  0.27273906  0.37121925  0.80421453     0.15800
C2277       C  0.27093218  0.36604909  0.74469036     0.37400
C2278       C  0.23307582  0.30320689  0.83324680     0.37300
N2279       N  0.27861305  0.37907743  0.72710295    -0.42900
N2280       N  0.22498168  0.29014031  0.85067458    -0.42900
C2281       C  0.25100957  0.32919261  0.56905956     0.00700
C2282       C  0.23994278  0.31412118  0.54661917    -0.11200
C2283       C  0.24175074  0.31898250  0.51565133     0.02900
C2284       C  0.25465947  0.33938768  0.50663892     0.00600
C2285       C  0.26698288  0.35409264  0.52869594    -0.11100
C2286       C  0.26548200  0.34915046  0.55965482     0.02800
H2287       H  0.22920323  0.29854866  0.55333148     0.15800
H2288       H  0.27737159  0.36973120  0.52181252     0.15800
C2289       C  0.27827031  0.36514759  0.58109496     0.37400
C2290       C  0.22909400  0.30305107  0.49400609     0.37300
N2291       N  0.28866649  0.37804237  0.59809771    -0.42900
N2292       N  0.21573555  0.29390295  0.98034541    -0.42900
C2293       C  0.18723568  0.33105614  0.66242083     0.00700
C2294       C  0.19452124  0.35185281  0.66990732    -0.11200
C2295       C  0.18138887  0.36010314  0.67110449     0.02900
C2296       C  0.16032708  0.34753329  0.66443671     0.00600
C2297       C  0.15315055  0.32684086  0.65645189    -0.11100
C2298       C  0.16622909  0.31856942  0.65545358     0.02800
H2299       H  0.21058019  0.36174207  0.67545609     0.15800
H2300       H  0.13708711  0.31690128  0.65097914     0.15800
C2301       C  0.15758480  0.29727900  0.64677845     0.37400
C2302       C  0.18991428  0.38126304  0.68042987     0.37300
N2303       N  0.15058821  0.28020200  0.63982711    -0.42900
N2304       N  0.19686251  0.39821395  0.68806683    -0.42900
C2305       C  0.09124191  0.34780464  0.57682585     0.00700
C2306       C  0.08072326  0.32677696  0.56956494    -0.11200
C2307       C  0.07620229  0.31978051  0.53923608     0.02900
C2308       C  0.08191426  0.33393271  0.51505407     0.00600
C2309       C  0.09131467  0.35494782  0.52243701    -0.11100
C2310       C  0.09610593  0.36196590  0.55281753     0.02800
H2311       H  0.07668583  0.31567028  0.58760874     0.15800
H2312       H  0.09567184  0.36605401  0.50432441     0.15800
C2313       C  0.10596488  0.38378335  0.55850221     0.37400
C2314       C  0.06587991  0.29792333  0.53380269     0.37300
N2315       N  0.11382586  0.40129216  0.56282430    -0.42900
N2316       N  0.05765745  0.28039279  0.52954929    -0.42900
C2317       C  0.09541830  0.34511240  0.76437173     0.00700
C2318       C  0.10242787  0.36086033  0.78656796    -0.11200
C2319       C  0.09951812  0.35646698  0.81776917     0.02900
C2320       C  0.08951534  0.33590148  0.82730257     0.00600
C2321       C  0.08156886  0.32018506  0.80506883    -0.11100
C2322       C  0.08444381  0.32455010  0.77392547     0.02800
H2323       H  0.11067309  0.37675195  0.77954385     0.15800
H2324       H  0.07359340  0.30428038  0.81209222     0.15800
C2325       C  0.07730992  0.30756369  0.75269702     0.37400
C2326       C  0.10803004  0.37333706  0.83933684     0.37300
N2327       N  0.07163821  0.29377386  0.73601224    -0.42900
N2328       N  0.11490836  0.38691962  0.85652588    -0.42900
C2329       C  0.15511352  0.81116047  0.91951411     0.00700
C2330       C  0.14868608  0.82586383  0.91907602    -0.11200
C2331       C  0.16279667  0.84703522  0.92061237     0.02900
C2332       C  0.18403185  0.85404137  0.92182082     0.00600
C2333       C  0.19031676  0.83926535  0.92317793    -0.11100
C2334       C  0.17625082  0.81819010  0.92253056     0.02800
H2335       H  0.13248967  0.82084240  0.91763617     0.15800
H2336       H  0.20646310  0.84415325  0.92505969     0.15800
C2337       C  0.18407825  0.80427077  0.92608369     0.37400
C2338       C  0.15489962  0.86100899  0.92120639     0.37300
N2339       N  0.19032720  0.79312013  0.92925841    -0.42900
N2340       N  0.14835455  0.87203523  0.92198117    -0.42900
C2341       C  0.08464831  0.74699544  0.75887979     0.00700
C2342       C  0.07485761  0.75247938  0.78118851    -0.11200
C2343       C  0.07653210  0.74934631  0.81231855     0.02900
C2344       C  0.08881904  0.74107571  0.82211421     0.00600
C2345       C  0.09778649  0.73460074  0.79964541    -0.11100
C2346       C  0.09553862  0.73715793  0.76833273     0.02800
H2347       H  0.06609670  0.75965574  0.77430158     0.15800
H2348       H  0.10700116  0.72792632  0.80655062     0.15800
C2349       C  0.10539548  0.73043206  0.74663699     0.37400
C2350       C  0.06609548  0.75564968  0.83357508     0.37300
N2351       N  0.11321151  0.72489686  0.72932069    -0.42900
N2352       N  0.05760093  0.76061890  0.85051542    -0.42900
C2353       C  0.08285770  0.75160176  0.57068921     0.00700
C2354       C  0.07730488  0.76209615  0.54955634    -0.11200
C2355       C  0.07888574  0.75994407  0.51804248     0.02900
C2356       C  0.08634174  0.74725548  0.50727005     0.00600
C2357       C  0.09074124  0.73590426  0.52816485    -0.11100
C2358       C  0.08897950  0.73784015  0.55954297     0.02800
H2359       H  0.07229880  0.77252711  0.55765822     0.15800
H2360       H  0.09628623  0.72592425  0.51992420     0.15800
C2361       C  0.09473784  0.72636111  0.57950107     0.37400
C2362       C  0.07414851  0.77193433  0.49745005     0.37300
N2363       N  0.09938366  0.71707219  0.59527735    -0.42900
N2364       N  0.06446699  0.77569833  0.98117315    -0.42900
C2365       C  0.02519892  0.75973893  0.65112211     0.00700
C2366       C  0.02245429  0.76865875  0.62468013    -0.11200
C2367       C  0.00309560  0.76033385  0.61042529     0.02900
C2368       C  0.98624087  0.74282794  0.62273494     0.00600
C2369       C  0.98870812  0.73520272  0.65058534    -0.11100
C2370       C  0.00782701  0.74354307  0.66490782     0.02800
H2371       H  0.03567182  0.78108002  0.61381783     0.15800
H2372       H  0.97568279  0.72210817  0.66071475     0.15800
C2373       C  0.00921829  0.73485064  0.69346521     0.37400
C2374       C  0.00131917  0.76888885  0.58203806     0.37300
N2375       N  0.01011069  0.72786623  0.71644811    -0.42900
N2376       N  0.99997493  0.77581357  0.55926443    -0.42900
C2377       C  0.31863841  0.90139786  0.70132269     0.00700
C2378       C  0.32033885  0.90514346  0.73288174    -0.11200
C2379       C  0.33953215  0.91640231  0.74708088     0.02900
C2380       C  0.35749498  0.92378097  0.72966559     0.00600
C2381       C  0.35578687  0.91850968  0.69853250    -0.11100
C2382       C  0.33652227  0.90762082  0.68420637     0.02800
H2383       H  0.30659487  0.90060370  0.74612430     0.15800
H2384       H  0.36952108  0.92428225  0.68487601     0.15800
C2385       C  0.33544149  0.90401277  0.65171835     0.37400
C2386       C  0.34039783  0.92084293  0.77930393     0.37300
N2387       N  0.33456479  0.90104015  0.62568565    -0.42900
N2388       N  0.34100485  0.92429572  0.80516005    -0.42900
C2389       C  0.19437873  0.84388726  0.66611306     0.00700
C2390       C  0.18758254  0.82284041  0.66773948    -0.11200
C2391       C  0.16662754  0.80823023  0.66762855     0.02900
C2392       C  0.15172498  0.81450865  0.66572315     0.00600
C2393       C  0.15854780  0.83554675  0.66350738    -0.11100
C2394       C  0.17949624  0.85014453  0.66352345     0.02800
H2395       H  0.19867675  0.81773530  0.66971391     0.15800
H2396       H  0.14746730  0.84067461  0.66156665     0.15800
C2397       C  0.18511027  0.87141578  0.66031492     0.37400
C2398       C  0.16107831  0.78696000  0.67038726     0.37300
N2399       N  0.18965871  0.88846754  0.65773431    -0.42900
N2400       N  0.15670021  0.76993508  0.67263048    -0.42900
C2401       C  0.26251856  0.91347972  0.58070913     0.00700
C2402       C  0.27358848  0.91034614  0.55764447    -0.11200
C2403       C  0.27138694  0.91411688  0.52692096     0.02900
C2404       C  0.25724943  0.92050846  0.51856589     0.00600
C2405       C  0.24713552  0.92477223  0.54197450    -0.11100
C2406       C  0.24970610  0.92146068  0.57268547     0.02800
H2407       H  0.28377556  0.90458813  0.56359504     0.15800
H2408       H  0.23649701  0.93000519  0.53625542     0.15800
C2409       C  0.23778581  0.92496953  0.59516220     0.37400
C2410       C  0.28355056  0.91082997  0.50465412     0.37300
N2411       N  0.22821878  0.92775959  0.61316349    -0.42900
N2412       N  0.28151519  0.89456492  0.98454959    -0.42900
C2413       C  0.25739596  0.90882274  0.76471987     0.00700
C2414       C  0.26536399  0.90137937  0.78712124    -0.11200
C2415       C  0.26242164  0.90330619  0.81818112     0.02900
C2416       C  0.25116074  0.91275998  0.82734567     0.00600
C2417       C  0.24413554  0.92117559  0.80495956    -0.11100
C2418       C  0.24727002  0.91943697  0.77389761     0.02800
H2419       H  0.27338786  0.89338017  0.78029083     0.15800
H2420       H  0.23580103  0.92886643  0.81173284     0.15800
C2421       C  0.23872591  0.92744385  0.75205670     0.37400
C2422       C  0.26990115  0.89418986  0.83985526     0.37300
N2423       N  0.23182159  0.93381866  0.73458294    -0.42900
N2424       N  0.27582148  0.88678777  0.85719444    -0.42900
C2425       C  0.24860797  0.26366647  0.64350796     0.00700
C2426       C  0.23790137  0.24861669  0.62077317    -0.11200
C2427       C  0.24718223  0.23870983  0.60564455     0.02900
C2428       C  0.26742546  0.24401237  0.61326528     0.00600
C2429       C  0.27714970  0.25742636  0.63784840    -0.11100
C2430       C  0.26802796  0.26710011  0.65302595     0.02800
H2431       H  0.22293793  0.24567201  0.61329193     0.15800
H2432       H  0.29247499  0.26099521  0.64460296     0.15800
C2433       C  0.27954544  0.28120784  0.67746155     0.37400
C2434       C  0.23636980  0.22445940  0.58108799     0.37300
N2435       N  0.28898777  0.29255412  0.69686008    -0.42900
N2436       N  0.22771645  0.21299759  0.56140227    -0.42900
C2437       C  0.32968175  0.18269941  0.58126835     0.00700
C2438       C  0.31821792  0.16362382  0.56658375    -0.11200
C2439       C  0.32490997  0.14921571  0.56627195     0.02900
C2440       C  0.34317181  0.15347010  0.58182860     0.00600
C2441       C  0.35449580  0.17246094  0.59676649    -0.11100
C2442       C  0.34803078  0.18700970  0.59657399     0.02800
H2443       H  0.30434645  0.16022323  0.55436392     0.15800
H2444       H  0.36841669  0.17593835  0.60889633     0.15800
C2445       C  0.36045984  0.20606940  0.61288424     0.37400
C2446       C  0.31332848  0.13080014  0.54815765     0.37300
N2447       N  0.37049326  0.22134501  0.62589170    -0.42900
N2448       N  0.30413740  0.11619897  0.53329477    -0.42900
C2449       C  0.41338072  0.09984320  0.55651011     0.00700
C2450       C  0.41219749  0.09633010  0.52489802    -0.11200
C2451       C  0.42202127  0.08665906  0.51132695     0.02900
C2452       C  0.43318992  0.08022760  0.52955495     0.00600
C2453       C  0.43601673  0.08556354  0.56071871    -0.11100
C2454       C  0.42610751  0.09522410  0.57429834     0.02800
H2455       H  0.40244098  0.09990780  0.51105893     0.15800
H2456       H  0.44449617  0.08059502  0.57499600     0.15800
C2457       C  0.42798352  0.09896667  0.60677283     0.37400
C2458       C  0.41983637  0.08281209  0.47884165     0.37300
N2459       N  0.42947645  0.10211608  0.63278308    -0.42900
N2460       N  0.41823005  0.07989857  0.45276963    -0.42900
C2461       C  0.32970569  0.07971678  0.73914866     0.00700
C2462       C  0.35078751  0.09016642  0.73308710    -0.11200
C2463       C  0.35814310  0.09385439  0.70314768     0.02900
C2464       C  0.34429432  0.08693743  0.67819414     0.00600
C2465       C  0.32323867  0.07530932  0.68416999    -0.11100
C2466       C  0.31585613  0.07172299  0.71417855     0.02800
H2467       H  0.36166711  0.09618568  0.75183742     0.15800
H2468       H  0.31240472  0.06965108  0.66533120     0.15800
C2469       C  0.29400595  0.05978262  0.71838649     0.37400
C2470       C  0.38003132  0.10479232  0.69890779     0.37300
N2471       N  0.27645655  0.05012022  0.72133148    -0.42900
N2472       N  0.39758514  0.11351611  0.69565476    -0.42900
C2473       C  0.33170869  0.08812725  0.92762525     0.00700
C2474       C  0.31616195  0.08044449  0.94968397    -0.11200
C2475       C  0.32080253  0.08299483  0.98096025     0.02900
C2476       C  0.34140729  0.09378074  0.99077794     0.00600
C2477       C  0.35693558  0.10099099  0.96873393    -0.11100
C2478       C  0.35230653  0.09810341  0.93748871     0.02800
H2479       H  0.30026657  0.07255672  0.94248305     0.15800
H2480       H  0.37283857  0.10910924  0.97592272     0.15800
C2481       C  0.36904256  0.10631474  0.91620261     0.37400
C2482       C  0.30411434  0.07515195  0.00232436     0.37300
N2483       N  0.38248136  0.11286984  0.89918266    -0.42900
N2484       N  0.29475229  0.05842256  0.51950586    -0.42900
C2485       C  0.25398672  0.97895353  0.88486821     0.00700
C2486       C  0.24765164  0.99280701  0.89442053    -0.11200
C2487       C  0.25612059  0.01254869  0.88154279     0.02900
C2488       C  0.27093395  0.01856202  0.85821643     0.00600
C2489       C  0.27618930  0.00416933  0.84758169    -0.11100
C2490       C  0.26803768  0.98473314  0.86051281     0.02800
H2491       H  0.23682987  0.98859945  0.91292599     0.15800
H2492       H  0.28732454  0.00836076  0.82949200     0.15800
C2493       C  0.27466725  0.97118198  0.84810048     0.37400
C2494       C  0.25039327  0.02672222  0.89413385     0.37300
N2495       N  0.28042682  0.96080117  0.83773959    -0.42900
N2496       N  0.24581027  0.03808015  0.90434560    -0.42900
C2497       C  0.40044444  0.31589299  0.79790914     0.00700
C2498       C  0.42132575  0.32934652  0.80406129    -0.11200
C2499       C  0.43177633  0.34881855  0.79023013     0.02900
C2500       C  0.42138221  0.35469898  0.76916793     0.00600
C2501       C  0.40104725  0.34046126  0.76148803    -0.11100
C2502       C  0.39052111  0.32155817  0.77577693     0.02800
H2503       H  0.42917244  0.32510008  0.82071966     0.15800
H2504       H  0.39285558  0.34447992  0.74507526     0.15800
C2505       C  0.36927155  0.30847914  0.76734414     0.37400
C2506       C  0.45259219  0.36283315  0.79952217     0.37300
N2507       N  0.35222077  0.29828321  0.76062881    -0.42900
N2508       N  0.46926759  0.37410290  0.80705718    -0.42900
C2509       C  0.34238111  0.19011198  0.83025331     0.00700
C2510       C  0.35707370  0.18385345  0.83113728    -0.11200
C2511       C  0.35141433  0.16299690  0.83023089     0.02900
C2512       C  0.33041928  0.14753682  0.82874175     0.00600
C2513       C  0.31575673  0.15382570  0.82727031    -0.11100
C2514       C  0.32141988  0.17467829  0.82799588     0.02800
H2515       H  0.37316674  0.19532510  0.83244688     0.15800
H2516       H  0.29966179  0.14236983  0.82588413     0.15800
C2517       C  0.30514076  0.17951994  0.82657903     0.37400
C2518       C  0.36774537  0.15821687  0.83056877     0.37300
N2519       N  0.29207050  0.18336047  0.82545575    -0.42900
N2520       N  0.38098193  0.15460155  0.83074914    -0.42900
C2521       C  0.34058510  0.25715948  0.92299091     0.00700
C2522       C  0.35540412  0.26729797  0.94595282    -0.11200
C2523       C  0.35015068  0.26484236  0.97692921     0.02900
C2524       C  0.32962718  0.25164589  0.98565027     0.00600
C2525       C  0.31467471  0.24229101  0.96259666    -0.11100
C2526       C  0.31988256  0.24503185  0.93162571     0.02800
H2527       H  0.37131664  0.27684658  0.93971113     0.15800
H2528       H  0.29881742  0.23231614  0.96875789     0.15800
C2529       C  0.30373338  0.23420332  0.90943314     0.37400
C2530       C  0.36468537  0.27374125  0.49720649     0.37300
N2531       N  0.29074028  0.22552029  0.89172358    -0.42900
N2532       N  0.37792188  0.28252826  0.51450860    -0.42900
C2533       C  0.34191145  0.25148376  0.73531101     0.00700
C2534       C  0.32129221  0.24037267  0.72661165    -0.11200
C2535       C  0.31554193  0.23736956  0.69581561     0.02900
C2536       C  0.33063296  0.24588263  0.67279890     0.00600
C2537       C  0.35120647  0.25806034  0.68157483    -0.11100
C2538       C  0.35696507  0.26081900  0.71246585     0.02800
H2539       H  0.30962264  0.23335445  0.74392246     0.15800
H2540       H  0.36290277  0.26488449  0.66427242     0.15800
C2541       C  0.37840612  0.27350726  0.72001157     0.37400
C2542       C  0.29397081  0.22527785  0.68870603     0.37300
N2543       N  0.39557983  0.28371093  0.72603645    -0.42900
N2544       N  0.27670153  0.21548143  0.68301380    -0.42900
C2545       C  0.08264175  0.65152208  0.98621297     0.00700
C2546       C  0.09193838  0.65411507  0.95751886    -0.11200
C2547       C  0.10070771  0.67318252  0.94264272     0.02900
C2548       C  0.10030971  0.68988210  0.95669672     0.00600
C2549       C  0.09321779  0.68784511  0.98672799    -0.11100
C2550       C  0.08463230  0.66896681  0.00159539     0.02800
H2551       H  0.09078751  0.64092203  0.94564338     0.15800
H2552       H  0.09332977  0.70078613  0.99799392     0.15800
C2553       C  0.09266707  0.66032211  0.51682212     0.37400
C2554       C  0.10832776  0.67484682  0.91205382     0.37300
N2555       N  0.09781004  0.65884379  0.54111143    -0.42900
N2556       N  0.11450068  0.67638914  0.88752089    -0.42900
C2557       C  0.01393284  0.52508803  0.99897276     0.00700
C2558       C  0.99355641  0.51192081  0.98947324    -0.11200
C2559       C  0.98525080  0.49061050  0.98724754     0.02900
C2560       C  0.99730362  0.48168855  0.99483869     0.00600
C2561       C  0.01100606  0.49002537  0.49663826    -0.11100
C2562       C  0.01914533  0.51126897  0.49925367     0.02800
H2563       H  0.98388818  0.51829705  0.98352085     0.15800
H2564       H  0.02153880  0.48412659  0.49642394     0.15800
C2565       C  0.04110331  0.52396843  0.50138111     0.37400
C2566       C  0.96442809  0.47850186  0.97644310     0.37300
N2567       N  0.05872703  0.53395892  0.50312270    -0.42900
N2568       N  0.94774469  0.46898596  0.96763358    -0.42900
C2569       C  0.90726171  0.31610912  0.56697659     0.00700
C2570       C  0.89873381  0.31933162  0.54044272    -0.11200
C2571       C  0.90852114  0.33837918  0.52558927     0.02900
C2572       C  0.92705630  0.35443873  0.53745161     0.00600
C2573       C  0.93424206  0.35181309  0.56569973    -0.11100
C2574       C  0.92447998  0.33295574  0.58057289     0.02800
H2575       H  0.88546593  0.30651931  0.52985697     0.15800
H2576       H  0.94816828  0.36432118  0.57550490     0.15800
C2577       C  0.93289030  0.33104073  0.60921525     0.37400
C2578       C  0.90038323  0.34042541  0.49687714     0.37300
N2579       N  0.93956726  0.32953111  0.63222035    -0.42900
N2580       N  0.89384538  0.34203608  0.47381699    -0.42900
C2581       C  0.99673554  0.58255604  0.65991014     0.00700
C2582       C  0.01748383  0.59139550  0.65219210    -0.11200
C2583       C  0.02368359  0.59331053  0.62170210     0.02900
C2584       C  0.00900492  0.58684873  0.59780230     0.00600
C2585       C  0.98830316  0.57868566  0.60548428    -0.11100
C2586       C  0.98205722  0.57621196  0.63605790     0.02800
H2587       H  0.02893558  0.59614913  0.67012788     0.15800
H2588       H  0.97681093  0.57352156  0.58755768     0.15800
C2589       C  0.96044981  0.56693114  0.64213888     0.37400
C2590       C  0.04523186  0.60164656  0.61585601     0.37300
N2591       N  0.94311200  0.55937113  0.64696728    -0.42900
N2592       N  0.06245902  0.60815619  0.61107661    -0.42900
C2593       C  0.00188851  0.58743669  0.84878403     0.00700
C2594       C  0.02263583  0.59729360  0.85678307    -0.11200
C2595       C  0.02878843  0.60014692  0.88743810     0.02900
C2596       C  0.01397338  0.59331904  0.91092904     0.00600
C2597       C  0.99332671  0.58516518  0.90280555    -0.11100
C2598       C  0.98717456  0.58205611  0.87210552     0.02800
H2599       H  0.03405721  0.60184735  0.83906655     0.15800
H2600       H  0.98182669  0.58022253  0.92044411     0.15800
C2601       C  0.96561888  0.57309123  0.86521454     0.37400
C2602       C  0.05043856  0.60971177  0.89381970     0.37300
N2603       N  0.94836849  0.56587432  0.85956337    -0.42900
N2604       N  0.06783343  0.61728229  0.89850132    -0.42900
C2605       C  0.92423481  0.61381273  0.81538001     0.00700
C2606       C  0.94494750  0.62043036  0.82105060    -0.11200
C2607       C  0.95452078  0.61037276  0.80828062     0.02900
C2608       C  0.94347034  0.59313078  0.78884597     0.00600
C2609       C  0.92235052  0.58544460  0.78483186    -0.11100
C2610       C  0.91268929  0.59566954  0.79781144     0.02800
H2611       H  0.95398544  0.63394276  0.83513542     0.15800
H2612       H  0.91357047  0.57196300  0.77061039     0.15800
C2613       C  0.89124775  0.58777518  0.79149714     0.37400
C2614       C  0.97581399  0.61813865  0.81599064     0.37300
N2615       N  0.87404072  0.58143161  0.78643227    -0.42900
N2616       N  0.99285871  0.62445654  0.82224383    -0.42900
C2617       C  0.09381872  0.40990999  0.69162621     0.00700
C2618       C  0.10215995  0.42362103  0.71660340    -0.11200
C2619       C  0.09150289  0.43281507  0.72970636     0.02900
C2620       C  0.07220047  0.42813118  0.71779867     0.00600
C2621       C  0.06484486  0.41580164  0.69152820    -0.11100
C2622       C  0.07539617  0.40688547  0.67834226     0.02800
H2623       H  0.11627571  0.42610917  0.72709470     0.15800
H2624       H  0.05029499  0.41258174  0.68165096     0.15800
C2625       C  0.06652249  0.39414773  0.65153124     0.37400
C2626       C  0.09991654  0.44572871  0.75639194     0.37300
N2627       N  0.05932620  0.38392304  0.63010872    -0.42900
N2628       N  0.10673241  0.45611202  0.77776986    -0.42900
C2629       C  0.99793483  0.52109337  0.75919743     0.00700
C2630       C  0.98297209  0.50025947  0.75981517    -0.11200
C2631       C  0.98828697  0.48482593  0.75884517     0.02900
C2632       C  0.00915363  0.49001059  0.75705196     0.00600
C2633       C  0.02414648  0.51083737  0.75773444    -0.11100
C2634       C  0.01883964  0.52627744  0.75875598     0.02800
H2635       H  0.96694129  0.49591951  0.76072245     0.15800
H2636       H  0.04017284  0.51516465  0.75677148     0.15800
C2637       C  0.03538356  0.54726567  0.75855896     0.37400
C2638       C  0.97179441  0.46382493  0.75964844     0.37300
N2639       N  0.04868206  0.56406144  0.75833900    -0.42900
N2640       N  0.95854877  0.44701248  0.76025741    -0.42900
C2641       C  0.00401284  0.41734228  0.83765114     0.00700
C2642       C  0.01869513  0.42310707  0.86102652    -0.11200
C2643       C  0.01312607  0.42035856  0.89178305     0.02900
C2644       C  0.99229517  0.41137319  0.89999671     0.00600
C2645       C  0.97746457  0.40468835  0.87656076    -0.11100
C2646       C  0.98308395  0.40754748  0.84566751     0.02800
H2647       H  0.03480523  0.43065891  0.85532431     0.15800
H2648       H  0.96142042  0.39781864  0.88238617     0.15800
C2649       C  0.96711891  0.40149957  0.82295768     0.37400
C2650       C  0.02937537  0.42857803  0.91426867     0.37300
N2651       N  0.95433361  0.39669785  0.80476420    -0.42900
N2652       N  0.04241792  0.43534045  0.93226239    -0.42900
C2653       C  0.00406379  0.42413497  0.65353602     0.00700
C2654       C  0.01909403  0.42788671  0.63163152    -0.11200
C2655       C  0.01428201  0.42498835  0.60041895     0.02900
C2656       C  0.99413833  0.41871300  0.59062348     0.00600
C2657       C  0.97898219  0.41418011  0.61271549    -0.11100
C2658       C  0.98370145  0.41663866  0.64388134     0.02800
H2659       H  0.03475595  0.43337233  0.63894135     0.15800
H2660       H  0.96332361  0.40892071  0.60561442     0.15800
C2661       C  0.96757166  0.41247690  0.66522995     0.37400
C2662       C  0.03046406  0.42932632  0.57911240     0.37300
N2663       N  0.95458728  0.40912070  0.68223575    -0.42900
N2664       N  0.04347375  0.43274488  0.56212403    -0.42900
loop_ 
_geom_bond_atom_site_label_1 
_geom_bond_atom_site_label_2 
_geom_bond_distance 
_geom_bond_site_symmetry_2 
_ccdc_geom_bond_type 
O1            C4   1.274   1_655  A
O1           Cd6   2.523   1_655  S
C2           O11   1.268       .  A
C2            O7   1.277   1_455  A
C2         C1321   1.487       .  S
O3            C9   1.276       .  A
O3           Cd6   2.487       .  S
C4           O12   1.269       .  A
C4         C1309   1.500   1_455  S
C5           O10   1.276       .  A
C5            O8   1.269       .  A
C5         C1288   1.485       .  S
Cd6          O13   2.425   1_455  S
Cd6          O12   2.436       .  S
Cd6          O11   2.427       .  S
Cd6           O7   2.467   1_455  S
Cd6          O10   2.524       .  S
Cd6           O8   2.388       .  S
C9           O13   1.266   1_455  A
C9         C1300   1.492       .  S
O14          C17   1.277   1_455  A
O14         Cd19   2.457   1_455  S
C15          O24   1.271       .  A
C15          O20   1.274   1_655  A
C15        C1249   1.502       .  S
O16          C22   1.279       .  A
O16         Cd19   2.501       .  S
C17          O25   1.268       .  A
C17        C1261   1.477       .  S
C18          O23   1.278       .  A
C18          O21   1.268       .  A
C18        C1276   1.488       .  S
Cd19         O26   2.371       .  S
Cd19         O25   2.384       .  S
Cd19         O24   2.458       .  S
Cd19         O20   2.486   1_655  S
Cd19         O23   2.524       .  S
Cd19         O21   2.383       .  S
C22          O26   1.265       .  A
C22        C1297   1.492       .  S
O27          C30   1.272       .  A
O27       Cd1364   2.487       .  S
C28          O37   1.268       .  A
C28          O33   1.277   1_655  A
C28        C1324   1.481       .  S
O29        C1367   1.277       .  A
O29         Cd32   2.504       .  S
C30          O38   1.270       .  A
C30        C1312   1.497       .  S
C31          O36   1.277       .  A
C31          O34   1.268       .  A
C31        C1240   1.483       .  S
Cd32         O37   2.383   1_556  S
Cd32         O33   2.479   1_656  S
Cd32         O36   2.514   1_556  S
Cd32         O34   2.402   1_556  S
Cd32       O1359   2.458       .  S
Cd32       O1371   2.434   1_655  S
Cd32       O1370   2.467       .  S
C35          O39   1.266       .  A
C35        O1361   1.276       .  A
C35        C1228   1.495       .  S
O38       Cd1364   2.467       .  S
O39       Cd1364   2.399       .  S
O40          C43   1.278       .  A
O40         Cd45   2.445       .  S
C41          O50   1.269       .  A
C41          O46   1.273       .  A
C41        C1252   1.501       .  S
O42          C48   1.278       .  A
O42         Cd45   2.487       .  S
C43          O51   1.268       .  A
C43        C1264   1.477       .  S
C44          O49   1.277       .  A
C44          O47   1.269       .  A
C44        C1213   1.483       .  S
Cd45         O51   2.378       .  S
Cd45         O49   2.509       .  S
Cd45         O47   2.400       .  S
Cd45       O1384   2.410       .  S
Cd45       O1382   2.414       .  S
Cd45       O1378   2.476       .  S
O46       Cd1377   2.508       .  S
C48        O1384   1.268       .  A
C48        C1225   1.496       .  S
O50       Cd1377   2.477       .  S
O52        C1380   1.265   1_556  A
O52       Cd1377   2.421   1_556  S
O53          C56   1.271       .  A
O53         Cd58   2.482       .  S
C54          O63   1.266       .  A
C54          O59   1.275       .  A
C54        C1201   1.480       .  S
O55          C61   1.277       .  A
O55         Cd58   2.535       .  S
C56          O64   1.270       .  A
C56        C1189   1.491       .  S
C57          O62   1.277       .  A
C57          O60   1.265       .  A
C57        C1177   1.495       .  S
Cd58         O65   2.397       .  S
Cd58         O64   2.434       .  S
Cd58         O63   2.388       .  S
Cd58         O59   2.463       .  S
Cd58         O62   2.520       .  S
Cd58         O60   2.407       .  S
C61          O65   1.267       .  A
C61        C1165   1.491       .  S
O66          C69   1.275       .  A
O66         Cd71   2.461       .  S
C67          O76   1.269       .  A
C67          O72   1.277       .  A
C67        C1141   1.474       .  S
O68          C74   1.279       .  A
O68         Cd71   2.502       .  S
C69          O77   1.271       .  A
C69        C1129   1.493       .  S
C70          O75   1.278       .  A
C70          O73   1.271       .  A
C70        C1156   1.504       .  S
Cd71         O78   2.423       .  S
Cd71         O77   2.431       .  S
Cd71         O76   2.376       .  S
Cd71         O72   2.448       .  S
Cd71         O75   2.520       .  S
Cd71         O73   2.425       .  S
C74          O78   1.267       .  A
C74        C1180   1.497       .  S
O79          C82   1.275       .  A
O79         Cd84   2.456       .  S
C80          O89   1.268       .  A
C80          O85   1.276       .  A
C80        C2476   1.486   1_554  S
O81          C87   1.279       .  A
O81         Cd84   2.500       .  S
C82          O90   1.271       .  A
C82        C1132   1.489       .  S
C83          O88   1.278       .  A
C83          O86   1.268       .  A
C83        C1117   1.489       .  S
Cd84         O91   2.401       .  S
Cd84         O90   2.445       .  S
Cd84         O89   2.409       .  S
Cd84         O85   2.471       .  S
Cd84         O88   2.514       .  S
Cd84         O86   2.386       .  S
C87          O91   1.266       .  A
C87        C1108   1.494       .  S
O92          C95   1.273       .  A
O92         Cd97   2.460       .  S
C93         O102   1.267       .  A
C93          O98   1.277       .  A
C93        C1204   1.478       .  S
O94         C100   1.277       .  A
O94         Cd97   2.502       .  S
C95         O103   1.271       .  A
C95        C2524   1.493   1_554  S
C96         O101   1.278       .  A
C96          O99   1.266       .  A
C96        C1105   1.492       .  S
Cd97        O104   2.369       .  S
Cd97        O103   2.441       .  S
Cd97        O102   2.392       .  S
Cd97         O98   2.466       .  S
Cd97        O101   2.483       .  S
Cd97         O99   2.410       .  S
C100        O104   1.268       .  A
C100       C1096   1.476       .  S
O105        C108   1.275       .  A
O105       Cd110   2.491       .  S
C106        O115   1.267       .  A
C106        O111   1.277       .  A
C106       C1081   1.489       .  S
O107        C113   1.278       .  A
O107       Cd110   2.511       .  S
C108        O116   1.271       .  A
C108       C1069   1.501       .  S
C109        O114   1.276       .  A
C109        O112   1.270       .  A
C109       C1045   1.482       .  S
Cd110       O117   2.380       .  S
Cd110       O116   2.465       .  S
Cd110       O115   2.416       .  S
Cd110       O111   2.487       .  S
Cd110       O114   2.488       .  S
Cd110       O112   2.396       .  S
C113        O117   1.265       .  A
C113       C1057   1.496       .  S
O118        C121   1.272       .  A
O118       Cd123   2.474       .  S
C119        O128   1.265       .  A
C119        O124   1.275       .  A
C119       C1021   1.481       .  S
O120        C126   1.275       .  A
O120       Cd123   2.506       .  S
C121        O129   1.270       .  A
C121       C1009   1.498       .  S
C122        O127   1.276       .  A
C122        O125   1.265       .  A
C122       C1060   1.497       .  S
Cd123       O130   2.403       .  S
Cd123       O129   2.474       .  S
Cd123       O128   2.410       .  S
Cd123       O124   2.486       .  S
Cd123       O127   2.499       .  S
Cd123       O125   2.431       .  S
C126        O130   1.267       .  A
C126       C1033   1.478       .  S
O131        C134   1.274       .  A
O131       Cd136   2.485       .  S
C132        O141   1.271       .  A
C132        O137   1.271       .  A
C132       C1012   1.497       .  S
O133        C139   1.276       .  A
O133       Cd136   2.531       .  S
C134        O142   1.264       .  A
C134       C2356   1.474       .  S
C135        O140   1.274       .  A
C135        O138   1.267       .  A
C135       C1216   1.492       .  S
Cd136       O143   2.426       .  S
Cd136       O142   2.365       .  S
Cd136       O141   2.478       .  S
Cd136       O137   2.481       .  S
Cd136       O140   2.533       .  S
Cd136       O138   2.433       .  S
C139        O143   1.265       .  A
C139        C997   1.501       .  S
O144        C147   1.272       .  A
O144       Cd149   2.479       .  S
C145        O154   1.267       .  A
C145        O150   1.277       .  A
C145       C1084   1.480       .  S
O146        C152   1.278       .  A
O146       Cd149   2.524       .  S
C147        O155   1.271       .  A
C147       C2404   1.497       .  S
C148        O153   1.278       .  A
C148        O151   1.268       .  A
C148       C1153   1.502       .  S
Cd149       O156   2.432       .  S
Cd149       O155   2.455       .  S
Cd149       O154   2.376       .  S
Cd149       O150   2.473       .  S
Cd149       O153   2.555       .  S
Cd149       O151   2.413       .  S
C152        O156   1.267       .  A
C152       C1000   1.504       .  S
O157        C160   1.275       .  A
O157       Cd162   2.456       .  S
C158        O167   1.270       .  A
C158        O163   1.273       .  A
C158        C973   1.491       .  S
O159        C165   1.277       .  A
O159       Cd162   2.533       .  S
C160        O168   1.268       .  A
C160        C985   1.480       .  S
C161        O166   1.277       .  A
C161        O164   1.266       .  A
C161        C964   1.494       .  S
Cd162       O169   2.364       .  S
Cd162       O168   2.400       .  S
Cd162       O167   2.450       .  S
Cd162       O163   2.472       .  S
Cd162       O166   2.497       .  S
Cd162       O164   2.401       .  S
C165        O169   1.267       .  A
C165       C1285   1.487       .  S
O170        C173   1.276       .  A
O170       Cd175   2.499       .  S
C171        O180   1.271       .  A
C171        O176   1.273       .  A
C171        C937   1.493       .  S
O172        C178   1.277       .  A
O172       Cd175   2.493       .  S
C173        O181   1.266       .  A
C173        C949   1.488       .  S
C174        O179   1.275       .  A
C174        O177   1.267       .  A
C174       C1093   1.487       .  S
Cd175       O182   2.412       .  S
Cd175       O181   2.377       .  S
Cd175       O180   2.467       .  S
Cd175       O176   2.464       .  S
Cd175       O179   2.518       .  S
Cd175       O177   2.384       .  S
C178        O182   1.267       .  A
C178        C961   1.495       .  S
O183        C186   1.271       .  A
O183       Cd188   2.470       .  S
C184        O193   1.266       .  A
C184        O189   1.273       .  A
C184       C2284   1.477       .  S
O185        C191   1.276       .  A
O185       Cd188   2.533       .  S
C186        O194   1.270       .  A
C186        C940   1.495       .  S
C187        O192   1.277       .  A
C187        O190   1.264       .  A
C187        C928   1.498       .  S
Cd188       O195   2.383       .  S
Cd188       O194   2.453       .  S
Cd188       O193   2.399       .  S
Cd188       O189   2.466       .  S
Cd188       O192   2.531       .  S
Cd188       O190   2.414       .  S
C191        O195   1.267       .  A
C191        C913   1.495       .  S
O196        C199   1.274       .  A
O196       Cd201   2.488       .  S
C197        O206   1.267       .  A
C197        O202   1.278       .  A
C197        C988   1.480       .  S
O198        C204   1.279       .  A
O198       Cd201   2.485       .  S
C199        O207   1.270       .  A
C199       C2308   1.497       .  S
C200        O205   1.277       .  A
C200        O203   1.269       .  A
C200        C904   1.492       .  S
Cd201       O208   2.409       .  S
Cd201       O207   2.444       .  S
Cd201       O206   2.378       .  S
Cd201       O202   2.473       .  S
Cd201       O205   2.526       .  S
Cd201       O203   2.393       .  S
C204        O208   1.266       .  A
C204        C925   1.494       .  S
O209        C212   1.277       .  A
O209       Cd214   2.452       .  S
C210        O219   1.270       .  A
C210        O215   1.275       .  A
C210        C877   1.496       .  S
O211        C217   1.278       .  A
O211       Cd214   2.483       .  S
C212        O220   1.268       .  A
C212        C889   1.479       .  S
C213        O218   1.277       .  A
C213        O216   1.269       .  A
C213       C1168   1.492       .  S
Cd214       O221   2.409       .  S
Cd214       O220   2.381       .  S
Cd214       O219   2.427       .  S
Cd214       O215   2.473       .  S
Cd214       O218   2.513       .  S
Cd214       O216   2.382       .  S
C217        O221   1.267       .  A
C217        C865   1.492       .  S
O222        C225   1.273       .  A
O222       Cd227   2.447       .  S
C223        O232   1.268       .  A
C223        O228   1.278       .  A
C223        C853   1.485       .  S
O224        C230   1.279       .  A
O224       Cd227   2.487       .  S
C225        O233   1.272       .  A
C225        C841   1.491       .  S
C226        O231   1.278       .  A
C226        O229   1.268       .  A
C226        C829   1.486       .  S
Cd227       O234   2.383       .  S
Cd227       O233   2.450       .  S
Cd227       O232   2.383       .  S
Cd227       O228   2.473       .  S
Cd227       O231   2.507       .  S
Cd227       O229   2.370       .  S
C230        O234   1.267       .  A
C230        C868   1.492       .  S
O235        C238   1.277       .  A
O235       Cd240   2.492   1_554  S
C236        O245   1.271       .  A
C236        O241   1.273       .  A
C236        C844   1.491       .  S
O237        C243   1.276       .  A
O237       Cd240   2.523   1_554  S
C238        O246   1.266       .  A
C238        C856   1.484       .  S
C239        O242   1.266       .  A
C239       O1576   1.279       .  A
C239        C805   1.499       .  S
Cd240       O247   2.397   1_556  S
Cd240       O246   2.397   1_556  S
Cd240       O244   2.518       .  S
Cd240      O1577   2.466       .  S
Cd240      O1573   2.482       .  S
Cd240      O1574   2.403   1_556  S
O241      Cd1572   2.483       .  S
O242      Cd1572   2.413       .  S
C243        O247   1.269       .  A
C243        C820   1.496       .  S
O244       C1571   1.278       .  A
O245      Cd1572   2.421       .  S
O248        C251   1.272       .  A
O248      Cd1585   2.470   1_554  S
C249        O258   1.266       .  A
C249        O254   1.276       .  A
C249        C892   1.479       .  S
O250        C256   1.278       .  A
O250       Cd253   2.527       .  S
C251        O259   1.269       .  A
C251        C880   1.488       .  S
C252        O257   1.277       .  A
C252       O1587   1.266       .  A
C252        C808   1.503       .  S
Cd253       O260   2.392       .  S
Cd253       O258   2.382       .  S
Cd253       O254   2.486       .  S
Cd253       O257   2.515       .  S
Cd253      O1580   2.463       .  S
Cd253      O1591   2.463       .  S
Cd253      O1587   2.437       .  S
O255       C1584   1.266       .  A
O255      Cd1585   2.436       .  S
C256        O260   1.267       .  A
C256        C916   1.491       .  S
O259      Cd1585   2.460   1_554  S
O261        C264   1.273       .  A
O261      Cd1598   2.473       .  S
C262        O271   1.269       .  A
C262        O267   1.278   1_545  A
C262        C793   1.479       .  S
O263       C1601   1.279       .  A
O263       Cd266   2.476       .  S
C264        O272   1.270       .  A
C264        C781   1.489       .  S
C265        O270   1.277       .  A
C265        O268   1.269       .  A
C265       C1120   1.486       .  S
Cd266       O271   2.396       .  S
Cd266       O267   2.470   1_545  S
Cd266       O270   2.505       .  S
Cd266       O268   2.400       .  S
Cd266      O1593   2.477   1_544  S
Cd266      O1605   2.412   1_545  S
Cd266      O1604   2.445   1_554  S
C269        O273   1.263       .  A
C269       O1595   1.276       .  A
C269        C772   1.494       .  S
O272      Cd1598   2.445       .  S
O273      Cd1598   2.402       .  S
O274        C277   1.274       .  A
O274       Cd279   2.493       .  S
C275        O284   1.270       .  A
C275        O280   1.272       .  A
C275        C733   1.489       .  S
O276        C282   1.276       .  A
O276       Cd279   2.512       .  S
C277        O285   1.265       .  A
C277        C745   1.484       .  S
C278        O283   1.274       .  A
C278        O281   1.267       .  A
C278        C757   1.483       .  S
Cd279       O285   2.412       .  S
Cd279       O283   2.515       .  S
Cd279       O281   2.425       .  S
Cd279      O1618   2.422       .  S
Cd279      O1616   2.475       .  S
Cd279      O1612   2.488       .  S
O280      Cd1611   2.481       .  S
C282       O1618   1.264       .  A
C282        C769   1.496       .  S
O284      Cd1611   2.430       .  S
O286       C1614   1.263       .  A
O286      Cd1611   2.409       .  S
O287        C290   1.275   1_565  A
O287       Cd292   2.475   1_565  S
C288        O297   1.270       .  A
C288        O293   1.272   1_545  A
C288        C736   1.492       .  S
O289        C295   1.276       .  A
O289       Cd292   2.496       .  S
C290        O298   1.266       .  A
C290        C748   1.481   1_545  S
C291        O296   1.277       .  A
C291        O294   1.268       .  A
C291        C709   1.483       .  S
Cd292       O299   2.421   1_545  S
Cd292       O298   2.406       .  S
Cd292       O297   2.448       .  S
Cd292       O293   2.453   1_545  S
Cd292       O296   2.502       .  S
Cd292       O294   2.376       .  S
C295        O299   1.265   1_545  A
C295        C721   1.488       .  S
O300        C303   1.273       .  A
O300       Cd305   2.487       .  S
C301        O310   1.266       .  A
C301        O306   1.276       .  A
C301        C796   1.472       .  S
O302        C308   1.277       .  A
O302       Cd305   2.465       .  S
C303        O311   1.270       .  A
C303        C784   1.497       .  S
C304        O309   1.276       .  A
C304        O307   1.267       .  A
C304       C1048   1.481       .  S
Cd305       O312   2.407       .  S
Cd305       O311   2.446       .  S
Cd305       O310   2.389       .  S
Cd305       O306   2.468       .  S
Cd305       O309   2.525       .  S
Cd305       O307   2.367       .  S
C308        O312   1.267       .  A
C308        C724   1.487       .  S
O313        C316   1.273       .  A
O313       Cd318   2.455       .  S
C314        O323   1.266       .  A
C314        O319   1.275       .  A
C314        C700   1.470       .  S
O315        C321   1.277       .  A
O315       Cd318   2.515       .  S
C316        O324   1.270       .  A
C316        C685   1.489       .  S
C317        O322   1.278       .  A
C317        O320   1.265       .  A
C317        C673   1.487       .  S
Cd318       O325   2.374       .  S
Cd318       O324   2.408       .  S
Cd318       O323   2.367       .  S
Cd318       O319   2.456       .  S
Cd318       O322   2.497       .  S
Cd318       O320   2.395       .  S
C321        O325   1.269       .  A
C321        C712   1.488       .  S
O326        C329   1.274       .  A
O326       Cd331   2.481       .  S
C327        O336   1.265       .  A
C327        O332   1.277       .  A
C327        C664   1.487       .  S
O328        C334   1.278       .  A
O328       Cd331   2.487       .  S
C329        O337   1.271       .  A
C329        C649   1.494       .  S
C330        O335   1.276       .  A
C330        O333   1.269       .  A
C330        C901   1.495       .  S
Cd331       O338   2.400       .  S
Cd331       O337   2.457       .  S
Cd331       O336   2.380       .  S
Cd331       O332   2.494       .  S
Cd331       O335   2.530       .  S
Cd331       O333   2.378       .  S
C334        O338   1.266       .  A
C334        C676   1.486       .  S
O339        C342   1.274       .  A
O339       Cd344   2.483       .  S
C340        O349   1.265       .  A
C340        O345   1.275       .  A
C340       C1993   1.482   1_554  S
O341        C347   1.276       .  A
O341       Cd344   2.494       .  S
C342        O350   1.271       .  A
C342        C652   1.493       .  S
C343        O348   1.275       .  A
C343        O346   1.266       .  A
C343       C1237   1.488       .  S
Cd344       O351   2.426       .  S
Cd344       O350   2.438       .  S
Cd344       O349   2.421       .  S
Cd344       O345   2.475       .  S
Cd344       O348   2.510       .  S
Cd344       O346   2.389       .  S
C347        O351   1.266       .  A
C347        C637   1.487       .  S
O352        C355   1.274       .  A
O352       Cd357   2.463       .  S
C353        O362   1.270       .  A
C353        O358   1.278       .  A
C353        C697   1.480       .  S
O354        C360   1.280       .  A
O354       Cd357   2.514       .  S
C355        O363   1.272       .  A
C355       C2020   1.490   1_554  S
C356        O361   1.279       .  A
C356        O359   1.269       .  A
C356        C640   1.491       .  S
Cd357       O364   2.373       .  S
Cd357       O363   2.426       .  S
Cd357       O362   2.368       .  S
Cd357       O358   2.433       .  S
Cd357       O361   2.502       .  S
Cd357       O359   2.414       .  S
C360        O364   1.268       .  A
C360        C628   1.494       .  S
O365        C368   1.275       .  A
O365       Cd370   2.489       .  S
C366        O375   1.269       .  A
C366        O371   1.274       .  A
C366       C1933   1.483   1_554  S
O367        C373   1.276       .  A
O367       Cd370   2.507       .  S
C368        O376   1.265       .  A
C368        C613   1.484       .  S
C369        O374   1.275       .  A
C369        O372   1.267       .  A
C369       C1036   1.485       .  S
Cd370       O377   2.445       .  S
Cd370       O376   2.397       .  S
Cd370       O375   2.417       .  S
Cd370       O371   2.463       .  S
Cd370       O374   2.505       .  S
Cd370       O372   2.418       .  S
C373        O377   1.267       .  A
C373        C589   1.502       .  S
O378        C381   1.273       .  A
O378       Cd383   2.475       .  S
C379        O388   1.268       .  A
C379        O384   1.276       .  A
C379       C1909   1.487   1_554  S
O380        C386   1.278       .  A
O380       Cd383   2.510       .  S
C381        O389   1.271       .  A
C381        C565   1.496       .  S
C382        O387   1.278       .  A
C382        O385   1.268       .  A
C382        C817   1.490       .  S
Cd383       O390   2.423       .  S
Cd383       O389   2.463       .  S
Cd383       O388   2.414       .  S
Cd383       O384   2.468       .  S
Cd383       O387   2.524       .  S
Cd383       O385   2.383       .  S
C386        O390   1.267       .  A
C386        C592   1.500       .  S
O391        C394   1.272       .  A
O391       Cd396   2.494       .  S
C392        O401   1.267       .  A
C392        O397   1.276       .  A
C392        C580   1.486       .  S
O393        C399   1.275       .  A
O393       Cd396   2.507       .  S
C394        O402   1.268       .  A
C394        C568   1.493       .  S
C395        O400   1.276       .  A
C395        O398   1.267       .  A
C395        C541   1.486       .  S
Cd396       O403   2.424       .  S
Cd396       O402   2.448       .  S
Cd396       O401   2.389       .  S
Cd396       O397   2.487       .  S
Cd396       O400   2.531       .  S
Cd396       O398   2.402       .  S
C399        O403   1.265       .  A
C399        C553   1.494       .  S
O404        C407   1.276       .  A
O404       Cd409   2.489       .  S
C405        O414   1.268       .  A
C405        O410   1.273       .  A
C405        C604   1.497       .  S
O406        C412   1.275       .  A
O406       Cd409   2.483       .  S
C407        O415   1.265       .  A
C407        C616   1.482       .  S
C408        O413   1.274       .  A
C408        O411   1.268       .  A
C408       C1273   1.489       .  S
Cd409       O416   2.429       .  S
Cd409       O415   2.390       .  S
Cd409       O414   2.433       .  S
Cd409       O410   2.503       .  S
Cd409       O413   2.508       .  S
Cd409       O411   2.382       .  S
C412        O416   1.266       .  A
C412        C556   1.493       .  S
O417        C420   1.274       .  A
O417       Cd422   2.491       .  S
C418        O427   1.267       .  A
C418        O423   1.276       .  A
C418        C529   1.489       .  S
O419        C425   1.278       .  A
O419       Cd422   2.536       .  S
C420        O428   1.270       .  A
C420       C1849   1.499       .  S
C421        O426   1.277       .  A
C421        O424   1.267       .  A
C421        C544   1.491       .  S
Cd422       O429   2.426       .  S
Cd422       O428   2.463       .  S
Cd422       O427   2.389       .  S
Cd422       O423   2.499       .  S
Cd422       O426   2.538       .  S
Cd422       O424   2.394       .  S
C425        O429   1.266       .  A
C425        C505   1.502       .  S
O430        C433   1.274       .  A
O430       Cd435   2.484       .  S
C431        O440   1.265       .  A
C431        O436   1.276       .  A
C431       C1825   1.480       .  S
O432        C438   1.274       .  A
O432       Cd435   2.513       .  S
C433        O441   1.270       .  A
C433        C481   1.494       .  S
C434        O439   1.276       .  A
C434        O437   1.266       .  A
C434        C508   1.502       .  S
Cd435       O442   2.437       .  S
Cd435       O441   2.444       .  S
Cd435       O440   2.387       .  S
Cd435       O436   2.491       .  S
Cd435       O439   2.519       .  S
Cd435       O437   2.447       .  S
C438        O442   1.267       .  A
C438        C760   1.486       .  S
O443        C446   1.273       .  A
O443       Cd448   2.478       .  S
C444        O453   1.266       .  A
C444        O449   1.275       .  A
C444        C532   1.482       .  S
O445        C451   1.276       .  A
O445       Cd448   2.498       .  S
C446        O454   1.270       .  A
C446        C520   1.497       .  S
C447        O452   1.276       .  A
C447        O450   1.268       .  A
C447        C832   1.491       .  S
Cd448       O455   2.430       .  S
Cd448       O454   2.455       .  S
Cd448       O453   2.414       .  S
Cd448       O449   2.475       .  S
Cd448       O452   2.509       .  S
Cd448       O450   2.387       .  S
C451        O455   1.267       .  A
C451        C469   1.498       .  S
O456        C459   1.276       .  A
O456       Cd461   2.471       .  S
C457        O466   1.270       .  A
C457        O462   1.274       .  A
C457        C484   1.491       .  S
O458        C464   1.277       .  A
O458       Cd461   2.493       .  S
C459        O467   1.267       .  A
C459        C496   1.481       .  S
C460        O465   1.276       .  A
C460        O463   1.269       .  A
C460        C625   1.496       .  S
Cd461       O468   2.420       .  S
Cd461       O467   2.378       .  S
Cd461       O466   2.437       .  S
Cd461       O462   2.468       .  S
Cd461       O465   2.505       .  S
Cd461       O463   2.414       .  S
C464        O468   1.267       .  A
C464        C472   1.497       .  S
C469        C470   1.411       .  A
C469        C474   1.414       .  A
C470        C471   1.405       .  A
C470        H475   1.085       .  S
C471        C472   1.413       .  A
C471        C478   1.444       .  S
C472        C473   1.411       .  A
C473        C474   1.404       .  A
C473        H476   1.085       .  S
C474        C477   1.444       .  S
C477        N479   1.157       .  T
C478        N480   1.157       .  T
C481        C482   1.406       .  A
C481        C486   1.417       .  A
C482        C483   1.405       .  A
C482        H487   1.084       .  S
C483        C484   1.416       .  A
C483        C490   1.444       .  S
C484        C485   1.404       .  A
C485        C486   1.403       .  A
C485        H488   1.084       .  S
C486        C489   1.444       .  S
C489        N491   1.157       .  T
C490        N492   1.157       .  T
C493       C1763   1.473   1_554  S
C493        C494   1.406       .  A
C493        C498   1.406       .  A
C494        C495   1.398       .  A
C494        H499   1.083       .  S
C495        C496   1.411       .  A
C495        C502   1.444       .  S
C496        C497   1.410       .  A
C497        C498   1.399       .  A
C497        H500   1.085       .  S
C498        C501   1.444   1_554  S
C501        N503   1.157       .  T
C502        N504   1.157       .  T
C505        C506   1.405       .  A
C505        C510   1.421       .  A
C506        C507   1.410       .  A
C506        H511   1.084       .  S
C507        C508   1.422       .  A
C507        C514   1.444       .  S
C508        C509   1.403       .  A
C509        C510   1.406       .  A
C509        H512   1.085       .  S
C510        C513   1.444       .  S
C513        N515   1.157       .  T
C514        N516   1.158       .  T
C517       C1752   1.488   1_554  S
C517        C518   1.403       .  A
C517        C522   1.412       .  A
C518        C519   1.404       .  A
C518        H523   1.084   1_554  S
C519        C520   1.419       .  A
C519        C526   1.444       .  S
C520        C521   1.408       .  A
C521        C522   1.405       .  A
C521        H524   1.084       .  S
C522        C525   1.444       .  S
C525        N527   1.157       .  T
C526        N528   1.157       .  T
C529        C530   1.409       .  A
C529        C534   1.413       .  A
C530        C531   1.399       .  A
C530        H535   1.085       .  S
C531        C532   1.407       .  A
C531        C538   1.444       .  S
C532        C533   1.408       .  A
C533        C534   1.404       .  A
C533        H536   1.085       .  S
C534        C537   1.444       .  S
C537        N539   1.157       .  T
C538        N540   1.157       .  T
C541        C542   1.402       .  A
C541        C546   1.412       .  A
C542        C543   1.397       .  A
C542        H547   1.086       .  S
C543        C544   1.412       .  A
C543        C550   1.445       .  S
C544        C545   1.411       .  A
C545        C546   1.415       .  A
C545        H548   1.085       .  S
C546        C549   1.442       .  S
C549        N551   1.157       .  T
C550        N552   1.157       .  T
C553        C554   1.404       .  A
C553        C558   1.419       .  A
C554        C555   1.405       .  A
C554        H559   1.084       .  S
C555        C556   1.420       .  A
C555        C562   1.445       .  S
C556        C557   1.402       .  A
C557        C558   1.402       .  A
C557        H560   1.084       .  S
C558        C561   1.444       .  S
C561        N563   1.157       .  T
C562        N564   1.158       .  T
C565        C566   1.406       .  A
C565        C570   1.417       .  A
C566        C567   1.404       .  A
C566        H571   1.084       .  S
C567        C568   1.415       .  A
C567        C574   1.444       .  S
C568        C569   1.406       .  A
C569        C570   1.406       .  A
C569        H572   1.085       .  S
C570        C573   1.444       .  S
C573        N575   1.157       .  T
C574        N576   1.157       .  T
C577       C1711   1.480       .  S
C577        C578   1.408       .  A
C577        C582   1.407       .  A
C578        C579   1.402       .  A
C578        H583   1.083       .  S
C579        C580   1.412       .  A
C579        C586   1.444       .  S
C580        C581   1.410       .  A
C581        C582   1.400       .  A
C581        H584   1.083       .  S
C582        C585   1.444       .  S
C585       N1919   1.157       .  T
C586        N588   1.157       .  T
N587       C1917   1.157       .  T
C589        C590   1.412       .  A
C589        C594   1.414       .  A
C590        C591   1.407       .  A
C590        H595   1.085       .  S
C591        C592   1.413       .  A
C591        C598   1.444       .  S
C592        C593   1.411       .  A
C593        C594   1.405       .  A
C593        H596   1.085       .  S
C594        C597   1.444       .  S
C597        N599   1.157       .  T
C598        N600   1.157       .  T
C601       C1698   1.484       .  S
C601        C602   1.404       .  A
C601        C606   1.411       .  A
C602        C603   1.404       .  A
C602        H607   1.085       .  S
C603        C604   1.417       .  A
C603        C610   1.443       .  S
C604        C605   1.410       .  A
C605        C606   1.402       .  A
C605        H608   1.084       .  S
C606        C609   1.445       .  S
C609       N1943   1.157       .  T
C610        N612   1.157       .  T
N611       C1941   1.157       .  T
C613        C614   1.401       .  A
C613        C618   1.418       .  A
C614        C615   1.401       .  A
C614        H619   1.084       .  S
C615        C616   1.417       .  A
C615        C622   1.445       .  S
C616        C617   1.400       .  A
C617        C618   1.401       .  A
C617        H620   1.084       .  S
C618        C621   1.444       .  S
C621        N623   1.157       .  T
C622        N624   1.157       .  T
C625        C626   1.404       .  A
C625        C630   1.418       .  A
C626        C627   1.398   1_565  A
C626        H631   1.085       .  S
C627        C628   1.418       .  A
C627        C634   1.447       .  S
C628        C629   1.406       .  A
C629        C630   1.412   1_545  A
C629        H632   1.084       .  S
C630        C633   1.442       .  S
C633        N635   1.157       .  T
C634        N636   1.158       .  T
C637        C638   1.401       .  A
C637        C642   1.416       .  A
C638        C639   1.403       .  A
C638        H643   1.084       .  S
C639        C640   1.417       .  A
C639        C646   1.444       .  S
C640        C641   1.405       .  A
C641        C642   1.407       .  A
C641        H644   1.084       .  S
C642        C645   1.445       .  S
C645        N647   1.158       .  T
C646        N648   1.157       .  T
C649        C650   1.408       .  A
C649        C654   1.414       .  A
C650        C651   1.407       .  A
C650        H655   1.084       .  S
C651        C652   1.415       .  A
C651        C658   1.444       .  S
C652        C653   1.406       .  A
C653        C654   1.404       .  A
C653        H656   1.084       .  S
C654        C657   1.444       .  S
C657        N659   1.157       .  T
C658        N660   1.157       .  T
C661       C1672   1.483       .  S
C661        C662   1.400       .  A
C661        C666   1.417       .  A
C662        C663   1.399       .  A
C662        H667   1.085       .  S
C663        C664   1.419       .  A
C663        C670   1.445       .  S
C664        C665   1.403       .  A
C665        C666   1.403       .  A
C665        H668   1.085       .  S
C666        C669   1.445       .  S
C669        N671   1.157       .  T
C670        N672   1.157       .  T
C673        C674   1.402       .  A
C673        C678   1.419       .  A
C674        C675   1.403       .  A
C674        H679   1.085       .  S
C675        C676   1.418       .  A
C675        C682   1.444       .  S
C676        C677   1.401       .  A
C677        C678   1.402       .  A
C677        H680   1.085       .  S
C678        C681   1.445       .  S
C681        N683   1.157       .  T
C682        N684   1.157       .  T
C685        C686   1.407       .  A
C685        C690   1.417       .  A
C686        C687   1.403       .  A
C686        H691   1.084       .  S
C687        C688   1.413       .  A
C687        C694   1.444       .  S
C688       C1687   1.483       .  S
C688        C689   1.403       .  A
C689        C690   1.399       .  A
C689        H692   1.085       .  S
C690        C693   1.445       .  S
C693        N695   1.157       .  T
C694        N696   1.157       .  T
C697        C698   1.410       .  A
C697        C702   1.411       .  A
C698        C699   1.397       .  A
C698        H703   1.084       .  S
C699        C700   1.406       .  A
C699        C706   1.444       .  S
C700        C701   1.404       .  A
C701        C702   1.396       .  A
C701        H704   1.085       .  S
C702        C705   1.444       .  S
C705        N707   1.157       .  T
C706        N708   1.157       .  T
C709        C710   1.405       .  A
C709        C714   1.414       .  A
C710        C711   1.412       .  A
C710        H715   1.084       .  S
C711        C712   1.417       .  A
C711        C718   1.442       .  S
C712        C713   1.402       .  A
C713        C714   1.393       .  A
C713        H716   1.085       .  S
C714        C717   1.446       .  S
C717        N719   1.157       .  T
C718        N720   1.157       .  T
C721        C722   1.403       .  A
C721        C726   1.417   1_545  A
C722        C723   1.403       .  A
C722        H727   1.084       .  S
C723        C724   1.418   1_545  A
C723        C730   1.444       .  S
C724        C725   1.403       .  A
C725        C726   1.401       .  A
C725        H728   1.084       .  S
C726        C729   1.445       .  S
C729        N731   1.157       .  T
C730        N732   1.157       .  T
C733        C734   1.404       .  A
C733        C738   1.415   1_565  A
C734        C735   1.400       .  A
C734        H739   1.084       .  S
C735        C736   1.415   1_565  A
C735        C742   1.444       .  S
C736        C737   1.409       .  A
C737        C738   1.405       .  A
C737        H740   1.084       .  S
C738        C741   1.444       .  S
C741        N743   1.157       .  T
C742        N744   1.157       .  T
C745        C746   1.409       .  A
C745        C750   1.410   1_565  A
C746        C747   1.401       .  A
C746        H751   1.085       .  S
C747        C748   1.408       .  A
C747        C754   1.444       .  S
C748        C749   1.408   1_565  A
C749        C750   1.402       .  A
C749        H752   1.085       .  S
C750        C753   1.444       .  S
C753        N755   1.157       .  T
C754        N756   1.157       .  T
C757        C758   1.406       .  A
C757        C762   1.410       .  A
C758        C759   1.407       .  A
C758        H763   1.086       .  S
C759        C760   1.412       .  A
C759        C766   1.444       .  S
C760        C761   1.406       .  A
C761        C762   1.407       .  A
C761        H764   1.085       .  S
C762        C765   1.444       .  S
C765       N2099   1.157       .  T
C766        N768   1.157       .  T
N767       C2097   1.157       .  T
C769        C774   1.422   1_565  A
C769       C2102   1.402       .  A
C770        C771   1.404   1_554  A
C770       C2101   1.402       .  A
C770        H775   1.095   1_554  S
C771       C2104   1.422   1_556  A
C771        C778   1.444       .  S
C772        C773   1.401       .  A
C772       C2103   1.422   1_545  A
C773        C774   1.403       .  A
C773        H776   1.094       .  S
C774        C777   1.444       .  S
C777        N779   1.157       .  T
C778        N780   1.158       .  T
C781        C782   1.403   1_545  A
C781        C786   1.414       .  A
C782        C783   1.403       .  A
C782        H787   1.084       .  S
C783        C784   1.419       .  A
C783        C790   1.444       .  S
C784        C785   1.408   1_565  A
C785        C786   1.406       .  A
C785        H788   1.084       .  S
C786        C789   1.444       .  S
C789        N791   1.157       .  T
C790        N792   1.157       .  T
C793        C794   1.405       .  A
C793        C798   1.413   1_545  A
C794        C795   1.399   1_545  A
C794        H799   1.087       .  S
C795        C796   1.411       .  A
C795        C802   1.446       .  S
C796        C797   1.402       .  A
C797        C798   1.402       .  A
C797        H800   1.085       .  S
C798        C801   1.443       .  S
C801        N803   1.157       .  T
C802        N804   1.158   1_565  T
C805        C810   1.421       .  A
C805       C2138   1.403       .  A
C806        C807   1.407       .  A
C806       C2137   1.404       .  A
C806        H811   1.084       .  S
C807       C2140   1.420       .  A
C807        C814   1.445       .  S
C808        C809   1.405       .  A
C808       C2139   1.423       .  A
C809        C810   1.406       .  A
C809        H812   1.084       .  S
C810        C813   1.445       .  S
C813        N815   1.157       .  T
C814        N816   1.158       .  T
C817        C818   1.407       .  A
C817        C822   1.415       .  A
C818        C819   1.415       .  A
C818        H823   1.084       .  S
C819        C820   1.419       .  A
C819        C826   1.442       .  S
C820        C821   1.403       .  A
C821        C822   1.394       .  A
C821        H824   1.085   1_554  S
C822        C825   1.446       .  S
C825        N827   1.157       .  T
C826        N828   1.157       .  T
C829        C830   1.406       .  A
C829        C834   1.415       .  A
C830        C831   1.413       .  A
C830        H835   1.084       .  S
C831        C832   1.418       .  A
C831        C838   1.442       .  S
C832        C833   1.403       .  A
C833        C834   1.394       .  A
C833        H836   1.085       .  S
C834        C837   1.447       .  S
C837        N839   1.157       .  T
C838        N840   1.157       .  T
C841        C842   1.408       .  A
C841        C846   1.414       .  A
C842        C843   1.406       .  A
C842        H847   1.085       .  S
C843        C844   1.416       .  A
C843        C850   1.444       .  S
C844        C845   1.405       .  A
C845        C846   1.400       .  A
C845        H848   1.085       .  S
C846        C849   1.444       .  S
C849        N851   1.157       .  T
C850        N852   1.158       .  T
C853        C854   1.401       .  A
C853        C858   1.418       .  A
C854        C855   1.401       .  A
C854        H859   1.084       .  S
C855        C856   1.417       .  A
C855        C862   1.443       .  S
C856        C857   1.401       .  A
C857        C858   1.402       .  A
C857        H860   1.084       .  S
C858        C861   1.445       .  S
C861        N863   1.157       .  T
C862        N864   1.157       .  T
C865        C866   1.402       .  A
C865        C870   1.420       .  A
C866        C867   1.401       .  A
C866        H871   1.084       .  S
C867        C868   1.420       .  A
C867        C874   1.445       .  S
C868        C869   1.403       .  A
C869        C870   1.403       .  A
C869        H872   1.085       .  S
C870        C873   1.445       .  S
C873        N875   1.157       .  T
C874        N876   1.157       .  T
C877        C878   1.408       .  A
C877        C882   1.419       .  A
C878        C879   1.405       .  A
C878        H883   1.084       .  S
C879        C880   1.413       .  A
C879        C886   1.444       .  S
C880        C881   1.403       .  A
C881        C882   1.402       .  A
C881        H884   1.085       .  S
C882        C885   1.444       .  S
C885        N887   1.157       .  T
C886        N888   1.157       .  T
C889        C890   1.409       .  A
C889        C894   1.408       .  A
C890        C891   1.401       .  A
C890        H895   1.080       .  S
C891        C892   1.408       .  A
C891        C898   1.444       .  S
C892        C893   1.408       .  A
C893        C894   1.399       .  A
C893        H896   1.079       .  S
C894        C897   1.444       .  S
C897        N899   1.157       .  T
C898        N900   1.157       .  T
C901        C902   1.402       .  A
C901        C906   1.419       .  A
C902        C903   1.392   1_655  A
C902        H907   1.085       .  S
C903        C904   1.415       .  A
C903        C910   1.446       .  S
C904        C905   1.409       .  A
C905        C906   1.417   1_455  A
C905        H908   1.084       .  S
C906        C909   1.443       .  S
C909        N911   1.157       .  T
C910        N912   1.157       .  T
C913        C914   1.404       .  A
C913        C918   1.418       .  A
C914        C915   1.395       .  A
C914        H919   1.085       .  S
C915        C916   1.415       .  A
C915        C922   1.446       .  S
C916        C917   1.407       .  A
C917        C918   1.414       .  A
C917       H2252   1.084       .  S
C918        C921   1.442       .  S
H920       C2249   1.087       .  S
C921        N923   1.157       .  T
C922        N924   1.157       .  T
C925        C926   1.401       .  A
C925        C930   1.422       .  A
C926        C927   1.402       .  A
C926        H931   1.084       .  S
C927        C928   1.421       .  A
C927        C934   1.444       .  S
C928        C929   1.405       .  A
C929        C930   1.407       .  A
C929        H932   1.084       .  S
C930        C933   1.445       .  S
C933        N935   1.158       .  T
C934        N936   1.157       .  T
C937        C938   1.408       .  A
C937        C942   1.415       .  A
C938        C939   1.407       .  A
C938        H943   1.085       .  S
C939        C940   1.417       .  A
C939        C946   1.444       .  S
C940        C941   1.406       .  A
C941        C942   1.402       .  A
C941        H944   1.084       .  S
C942        C945   1.444       .  S
C945        N947   1.157       .  T
C946        N948   1.158       .  T
C949        C950   1.410       .  A
C949        C954   1.414       .  A
C950        C951   1.397       .  A
C950        H955   1.084       .  S
C951        C952   1.405       .  A
C951        C958   1.444   1_554  S
C952       C1516   1.477   1_554  S
C952        C953   1.407       .  A
C953        C954   1.406       .  A
C953        H956   1.084       .  S
C954        C957   1.444       .  S
C957        N959   1.158       .  T
C958       N2292   1.157       .  T
N960       C2290   1.157       .  T
C961        C962   1.411       .  A
C961        C966   1.413       .  A
C962        C963   1.404       .  A
C962        H967   1.084       .  S
C963        C964   1.412       .  A
C963        C970   1.444       .  S
C964        C965   1.410       .  A
C965        C966   1.403       .  A
C965        H968   1.085       .  S
C966        C969   1.444       .  S
C969        N971   1.157       .  T
C970        N972   1.157       .  T
C973        C974   1.404       .  A
C973        C978   1.414       .  A
C974        C975   1.405       .  A
C974        H979   1.084       .  S
C975        C976   1.419       .  A
C975        C982   1.444       .  S
C976       C1531   1.499   1_554  S
C976        C977   1.408       .  A
C977        C978   1.405       .  A
C977        H980   1.084       .  S
C978        C981   1.444       .  S
C981        N983   1.157       .  T
C982        N984   1.157       .  T
C985        C986   1.408       .  A
C985        C990   1.410       .  A
C986        C987   1.400       .  A
C986        H991   1.084       .  S
C987        C988   1.409       .  A
C987        C994   1.444       .  S
C988        C989   1.408       .  A
C989        C990   1.399       .  A
C989        H992   1.085       .  S
C990        C993   1.444       .  S
C993        N995   1.157       .  T
C994        N996   1.157       .  T
C997        C998   1.411       .  A
C997       C1002   1.413       .  A
C998        C999   1.406       .  A
C998       H1003   1.085       .  S
C999       C1000   1.414       .  A
C999       C1006   1.443       .  S
C1000      C1001   1.413       .  A
C1001      C1002   1.408       .  A
C1001      H1004   1.085       .  S
C1002      C1005   1.444       .  S
C1005      N1007   1.157       .  T
C1006      N1008   1.157       .  T
C1009      C1010   1.408       .  A
C1009      C1014   1.416       .  A
C1010      C1011   1.408       .  A
C1010      H1015   1.084       .  S
C1011      C1012   1.417       .  A
C1011      C1018   1.444       .  S
C1012      C1013   1.406       .  A
C1013      C1014   1.405       .  A
C1013      H1016   1.084       .  S
C1014      C1017   1.443       .  S
C1017      N1019   1.157       .  T
C1018      N1020   1.158       .  T
C1021      C1022   1.409       .  A
C1021      C1026   1.409       .  A
C1022      C1023   1.403       .  A
C1022      H1027   1.085       .  S
C1023      C1024   1.410       .  A
C1023      C1030   1.444   1_554  S
C1024      C1466   1.481   1_554  S
C1024      C1025   1.408       .  A
C1025      C1026   1.399       .  A
C1025      H1028   1.085       .  S
C1026      C1029   1.444       .  S
C1029      N1031   1.157       .  T
C1030      N2364   1.157       .  T
N1032      C2362   1.158       .  T
C1033      C1034   1.402       .  A
C1033      C1038   1.408       .  A
C1034      C1035   1.400       .  A
C1034      H1039   1.085       .  S
C1035      C1036   1.413   1_455  A
C1035      C1042   1.445       .  S
C1036      C1037   1.408       .  A
C1037      C1038   1.408   1_655  A
C1037      H1040   1.083       .  S
C1038      C1041   1.442       .  S
C1041      N1043   1.157       .  T
C1042      N1044   1.157       .  T
C1045      C1046   1.409       .  A
C1045      C1050   1.410       .  A
C1046      C1047   1.410       .  A
C1046      H1051   1.087       .  S
C1047      C1048   1.411       .  A
C1047      C1054   1.442       .  S
C1048      C1049   1.403       .  A
C1049      C1050   1.394       .  A
C1049      H1052   1.088       .  S
C1050      C1053   1.445       .  S
C1053      N1055   1.157       .  T
C1054      N1056   1.157       .  T
C1057      C1058   1.404       .  A
C1057      C1062   1.421       .  A
C1058      C1059   1.407       .  A
C1058      H1063   1.084       .  S
C1059      C1060   1.422       .  A
C1059      C1066   1.445       .  S
C1060      C1061   1.402       .  A
C1061      C1062   1.401       .  A
C1061      H1064   1.084       .  S
C1062      C1065   1.445       .  S
C1065      N1067   1.157       .  T
C1066      N1068   1.158       .  T
C1069      C1070   1.409       .  A
C1069      C1074   1.415       .  A
C1070      C1071   1.409       .  A
C1070      H1075   1.085       .  S
C1071      C1072   1.418       .  A
C1071      C1078   1.444       .  S
C1072      C1479   1.502   1_554  S
C1072      C1073   1.408       .  A
C1073      C1074   1.406       .  A
C1073      H1076   1.084       .  S
C1074      C1077   1.443       .  S
C1077      N1079   1.157       .  T
C1078      N2412   1.158   1_554  T
N1080      C2410   1.157       .  T
C1081      C1082   1.411       .  A
C1081      C1086   1.412       .  A
C1082      C1083   1.404       .  A
C1082      H1087   1.084       .  S
C1083      C1084   1.409       .  A
C1083      C1090   1.445       .  S
C1084      C1085   1.406       .  A
C1085      C1086   1.399       .  A
C1085      H1088   1.084       .  S
C1086      C1089   1.443       .  S
C1089      N1091   1.157       .  T
C1090      N1092   1.158       .  T
C1093      C1094   1.413       .  A
C1093      C1098   1.413       .  A
C1094      C1095   1.414       .  A
C1094      H1099   1.083       .  S
C1095      C1096   1.409       .  A
C1095      C1102   1.443       .  S
C1096      C1097   1.399       .  A
C1097      C1098   1.392       .  A
C1097      H1100   1.085       .  S
C1098      C1101   1.445       .  S
C1101      N1103   1.157       .  T
C1102      N1104   1.157       .  T
C1105      C1106   1.402       .  A
C1105      C1110   1.420       .  A
C1106      C1107   1.402       .  A
C1106      H1111   1.084       .  S
C1107      C1108   1.421       .  A
C1107      C1114   1.445       .  S
C1108      C1109   1.403       .  A
C1109      C1110   1.404       .  A
C1109      H1112   1.083       .  S
C1110      C1113   1.444       .  S
C1113      N1115   1.157       .  T
C1114      N1116   1.157       .  T
C1117      C1118   1.409       .  A
C1117      C1122   1.414       .  A
C1118      C1119   1.412       .  A
C1118      H1123   1.084       .  S
C1119      C1120   1.412       .  A
C1119      C1126   1.442       .  S
C1120      C1121   1.403       .  A
C1121      C1122   1.397       .  A
C1121      H1124   1.086       .  S
C1122      C1125   1.445       .  S
C1125      N1127   1.157       .  T
C1126      N1128   1.157   1_554  T
C1129      C1130   1.407       .  A
C1129      C1134   1.418       .  A
C1130      C1131   1.404       .  A
C1130      H1135   1.084       .  S
C1131      C1132   1.415       .  A
C1131      C1138   1.444       .  S
C1132      C1133   1.404       .  A
C1133      C1134   1.403       .  A
C1133      H1136   1.084       .  S
C1134      C1137   1.444       .  S
C1137      N1139   1.157       .  T
C1138      N1140   1.157       .  T
C1141      C1142   1.407       .  A
C1141      C1146   1.408       .  A
C1142      C1143   1.399       .  A
C1142      H1147   1.084       .  S
C1143      C1144   1.408       .  A
C1143      C1150   1.444       .  S
C1144      C1412   1.474       .  S
C1144      C1145   1.407       .  A
C1145      C1146   1.397       .  A
C1145      H1148   1.084       .  S
C1146      C1149   1.444       .  S
C1149      N1151   1.157       .  T
C1150      N2484   1.157       .  T
N1152      C2482   1.157       .  T
C1153      C1154   1.409       .  A
C1153      C1158   1.417       .  A
C1154      C1155   1.418   1_565  A
C1154      H1159   1.084       .  S
C1155      C1156   1.419       .  A
C1155      C1162   1.442       .  S
C1156      C1157   1.405       .  A
C1157      C1158   1.400   1_545  A
C1157      H1160   1.085       .  S
C1158      C1161   1.446       .  S
C1161      N1163   1.157       .  T
C1162      N1164   1.157       .  T
C1165      C1166   1.408       .  A
C1165      C1170   1.415       .  A
C1166      C1167   1.416       .  A
C1166      H1171   1.084       .  S
C1167      C1168   1.418       .  A
C1167      C1174   1.443       .  S
C1168      C1169   1.400       .  A
C1169      C1170   1.393       .  A
C1169      H1172   1.085       .  S
C1170      C1173   1.444       .  S
C1173      N1175   1.157       .  T
C1174      N1176   1.157       .  T
C1177      C1178   1.403       .  A
C1177      C1182   1.420       .  A
C1178      C1179   1.406       .  A
C1178      H1183   1.084       .  S
C1179      C1180   1.421       .  A
C1179      C1186   1.444       .  S
C1180      C1181   1.403       .  A
C1181      C1182   1.404       .  A
C1181      H1184   1.084       .  S
C1182      C1185   1.445       .  S
C1185      N1187   1.158       .  T
C1186      N1188   1.157       .  T
C1189      C1190   1.405       .  A
C1189      C1194   1.415       .  A
C1190      C1191   1.401       .  A
C1190      H1195   1.085       .  S
C1191      C1192   1.415       .  A
C1191      C2530   1.443       .  S
C1192      C1427   1.495       .  S
C1192      C1193   1.409       .  A
C1193      C1194   1.406       .  A
C1193      H1196   1.085       .  S
C1194      C1197   1.444       .  S
C1197      N1199   1.158       .  T
C1198      C2523   1.444       .  S
C1198      N1200   1.157   1_556  T
C1201      C1202   1.401       .  A
C1201      C1206   1.418       .  A
C1202      C1203   1.399       .  A
C1202      H1207   1.085       .  S
C1203      C1204   1.416       .  A
C1203      C1210   1.444       .  S
C1204      C1205   1.400       .  A
C1205      C1206   1.399       .  A
C1205      H1208   1.085       .  S
C1206      C1209   1.445       .  S
C1209      N1211   1.157       .  T
C1210      N1212   1.157       .  T
C1213      C1214   1.401       .  A
C1213      C1218   1.410       .  A
C1214      C1215   1.398       .  A
C1214      H1219   1.085       .  S
C1215      C1216   1.412       .  A
C1215      C1222   1.443       .  S
C1216      C1217   1.413       .  A
C1217      C1218   1.415       .  A
C1217      H1220   1.084       .  S
C1218      C2553   1.443       .  S
C1221      C2550   1.444       .  S
C1221      N1223   1.157       .  T
C1222      N1224   1.157       .  T
C1225      C1226   1.412   1_455  A
C1225      C2562   1.412       .  A
C1226      C1227   1.405       .  A
C1226      H1231   1.085       .  S
C1227      C1228   1.413       .  A
C1227      C1234   1.444       .  S
C1228      C2561   1.410   1_655  A
C1229      C1230   1.408       .  A
C1229      C2560   1.412   1_454  A
C1229      H1232   1.086       .  S
C1230      C2557   1.414   1_554  A
C1230      C1233   1.444       .  S
C1233      N1235   1.158       .  T
C1234      N1236   1.157       .  T
C1237      C1238   1.410       .  A
C1237      C1242   1.414       .  A
C1238      C1239   1.411       .  A
C1238      H1243   1.084       .  S
C1239      C1240   1.409       .  A
C1239      C1246   1.442   1_554  S
C1240      C1241   1.403       .  A
C1241      C1242   1.398       .  A
C1241      H1244   1.085       .  S
C1242      C1245   1.446       .  S
C1245      N1247   1.158       .  T
C1246      N1248   1.157       .  T
C1249      C1250   1.408   1_655  A
C1249      C1254   1.419       .  A
C1250      C1251   1.407       .  A
C1250      H1255   1.084       .  S
C1251      C1252   1.417       .  A
C1251      C1258   1.444       .  S
C1252      C1253   1.407   1_455  A
C1253      C1254   1.408       .  A
C1253      H1256   1.084       .  S
C1254      C1257   1.444       .  S
C1257      N1259   1.157       .  T
C1258      N1260   1.157       .  T
C1261      C1262   1.401   1_655  A
C1261      C1266   1.417       .  A
C1262      C1263   1.400       .  A
C1262      H1267   1.085       .  S
C1263      C1264   1.417       .  A
C1263      C1270   1.445       .  S
C1264      C1265   1.400   1_455  A
C1265      C1266   1.397       .  A
C1265      H1268   1.085       .  S
C1266      C1269   1.445       .  S
C1269      N1271   1.157       .  T
C1270      N1272   1.157       .  T
C1273      C1274   1.401       .  A
C1273      C1278   1.417       .  A
C1274      C1275   1.392       .  A
C1274      H1279   1.085       .  S
C1275      C1276   1.415       .  A
C1275      C1282   1.445       .  S
C1276      C1277   1.407       .  A
C1277      C1278   1.414       .  A
C1277      H1280   1.084       .  S
C1278      C1281   1.443       .  S
C1281      N1283   1.157       .  T
C1282      N1284   1.157       .  T
C1285      C1286   1.411       .  A
C1285      C1290   1.411       .  A
C1286      C1287   1.415       .  A
C1286      H1291   1.084       .  S
C1287      C1288   1.414       .  A
C1287      C1294   1.443       .  S
C1288      C1289   1.402       .  A
C1289      C1290   1.393       .  A
C1289      H1292   1.085       .  S
C1290      C1293   1.446       .  S
C1293      N1295   1.157       .  T
C1294      N1296   1.157       .  T
C1297      C1298   1.403       .  A
C1297      C1302   1.421   1_655  A
C1298      C1299   1.405       .  A
C1298      H1303   1.084       .  S
C1299      C1300   1.420   1_655  A
C1299      C1306   1.444       .  S
C1300      C1301   1.401       .  A
C1301      C1302   1.400       .  A
C1301      H1304   1.084       .  S
C1302      C1305   1.445       .  S
C1305      N1307   1.157       .  T
C1306      N1308   1.157       .  T
C1309      C1310   1.408   1_655  A
C1309      C1314   1.417       .  A
C1310      C1311   1.403       .  A
C1310      H1315   1.085       .  S
C1311      C1312   1.415   1_455  A
C1311      C1318   1.444       .  S
C1312      C1313   1.408       .  A
C1313      C1314   1.409       .  A
C1313      H1316   1.085       .  S
C1314      C1317   1.443       .  S
C1317      N1319   1.157       .  T
C1318      N1320   1.157       .  T
C1321      C1322   1.411       .  A
C1321      C1326   1.411   1_455  A
C1322      C1323   1.406       .  A
C1322      H1327   1.084       .  S
C1323      C1324   1.409   1_455  A
C1323      C1330   1.445       .  S
C1324      C1325   1.405       .  A
C1325      C1326   1.398       .  A
C1325      H1328   1.085       .  S
C1326      C1329   1.443       .  S
C1329      N1331   1.157       .  T
C1330      N1332   1.158       .  T
O1333      C1336   1.270       .  A
O1333     Cd1338   2.478       .  S
C1334      O1343   1.266       .  A
C1334      O1339   1.273   1_455  A
C1334      C2653   1.479       .  S
O1335      C1341   1.276       .  A
O1335     Cd1338   2.523       .  S
C1336      O1344   1.269       .  A
C1336      C2641   1.490       .  S
C1337      O1342   1.275       .  A
C1337      O1340   1.267       .  A
C1337      C2620   1.486       .  S
Cd1338     O1345   2.418       .  S
Cd1338     O1344   2.434       .  S
Cd1338     O1343   2.418       .  S
Cd1338     O1339   2.477   1_455  S
Cd1338     O1342   2.537       .  S
Cd1338     O1340   2.396       .  S
C1341      O1345   1.263       .  A
C1341      C2632   1.499       .  S
O1346      C1349   1.278   1_455  A
O1346     Cd1351   2.470   1_455  S
C1347      O1356   1.271       .  A
C1347      O1352   1.274   1_655  A
C1347      C2581   1.493       .  S
O1348      C1354   1.279       .  A
O1348     Cd1351   2.501       .  S
C1349      O1357   1.268       .  A
C1349      C2593   1.481   1_655  S
C1350      O1355   1.278       .  A
C1350      O1353   1.269       .  A
C1350      C2608   1.492       .  S
Cd1351     O1358   2.402   1_655  S
Cd1351     O1357   2.381       .  S
Cd1351     O1356   2.455       .  S
Cd1351     O1352   2.471   1_655  S
Cd1351     O1355   2.523       .  S
Cd1351     O1353   2.384       .  S
C1354      O1358   1.266   1_655  A
C1354      C2629   1.498       .  S
O1359      C1362   1.272       .  A
C1360      O1369   1.267       .  A
C1360      O1365   1.276       .  A
C1360      C2656   1.484       .  S
O1361     Cd1364   2.512       .  S
C1362      O1370   1.270       .  A
C1362      C2644   1.493       .  S
C1363      O1368   1.276       .  A
C1363      O1366   1.266       .  A
C1363      C2572   1.482       .  S
Cd1364     O1369   2.388       .  S
Cd1364     O1365   2.483       .  S
Cd1364     O1368   2.521       .  S
Cd1364     O1366   2.395       .  S
C1367      O1371   1.267   1_655  A
C1367      C2560   1.499       .  S
O1372      C1375   1.275       .  A
O1372     Cd1377   2.512   1_556  S
C1373      O1382   1.269       .  A
C1373      O1378   1.275       .  A
C1373      C2584   1.493       .  S
O1374      C1380   1.275       .  A
O1374     Cd1377   2.527       .  S
C1375      O1383   1.263       .  A
C1375      C2596   1.488       .  S
C1376      O1381   1.274       .  A
C1376      O1379   1.268   1_556  A
C1376      C2545   1.488       .  S
Cd1377     O1383   2.407   1_554  S
Cd1377     O1381   2.521   1_554  S
Cd1377     O1379   2.419       .  S
C1380      C2557   1.499   1_554  S
O1385      C1388   1.273       .  A
O1385     Cd1390   2.466       .  S
C1386      O1395   1.267       .  A
C1386      O1391   1.277       .  A
C1386      C2533   1.482       .  S
O1387      C1393   1.278       .  A
O1387     Cd1390   2.517       .  S
C1388      O1396   1.271       .  A
C1388      C2521   1.491       .  S
C1389      O1394   1.279       .  A
C1389      O1392   1.265       .  A
C1389      C2509   1.501       .  S
Cd1390     O1397   2.378       .  S
Cd1390     O1396   2.452       .  S
Cd1390     O1395   2.405       .  S
Cd1390     O1391   2.469       .  S
Cd1390     O1394   2.511       .  S
Cd1390     O1392   2.404       .  S
C1393      O1397   1.268       .  A
C1393      C2497   1.488       .  S
O1398      C1401   1.274       .  A
O1398     Cd1403   2.460       .  S
C1399      O1408   1.269       .  A
C1399      O1404   1.277       .  A
C1399      C2473   1.486       .  S
O1400      C1406   1.280       .  A
O1400     Cd1403   2.516       .  S
C1401      O1409   1.271       .  A
C1401      C2461   1.494       .  S
C1402      O1407   1.278       .  A
C1402      O1405   1.269       .  A
C1402      C2488   1.497       .  S
Cd1403     O1410   2.424       .  S
Cd1403     O1409   2.465       .  S
Cd1403     O1408   2.408       .  S
Cd1403     O1404   2.467       .  S
Cd1403     O1407   2.524       .  S
Cd1403     O1405   2.407       .  S
C1406      O1410   1.267       .  A
C1406      C2512   1.503       .  S
O1411      C1414   1.272       .  A
O1411     Cd1416   2.479       .  S
C1412      O1421   1.266       .  A
C1412      O1417   1.276       .  A
O1413      C1419   1.275       .  A
O1413     Cd1416   2.492       .  S
C1414      O1422   1.268       .  A
C1414      C2464   1.491       .  S
C1415      O1420   1.274       .  A
C1415      O1418   1.266       .  A
C1415      C2449   1.476       .  S
Cd1416     O1423   2.430       .  S
Cd1416     O1422   2.439       .  S
Cd1416     O1421   2.367       .  S
Cd1416     O1417   2.459       .  S
Cd1416     O1420   2.505       .  S
Cd1416     O1418   2.408       .  S
C1419      O1423   1.265       .  A
C1419      C2440   1.491       .  S
O1424      C1427   1.273       .  A
O1424     Cd1429   2.471       .  S
C1425      O1434   1.265       .  A
C1425      O1430   1.277       .  A
C1425      C2536   1.487       .  S
O1426      C1432   1.276       .  A
O1426     Cd1429   2.513       .  S
C1427      O1435   1.270       .  A
C1428      O1433   1.276       .  A
C1428      O1431   1.266       .  A
C1428      C2437   1.490       .  S
Cd1429     O1436   2.376       .  S
Cd1429     O1435   2.456       .  S
Cd1429     O1434   2.379       .  S
Cd1429     O1430   2.502       .  S
Cd1429     O1433   2.498       .  S
Cd1429     O1431   2.409       .  S
C1432      O1436   1.268       .  A
C1432      C2428   1.480       .  S
O1437      C1440   1.271       .  A
O1437     Cd1442   2.454       .  S
C1438      O1447   1.266       .  A
C1438      O1443   1.274       .  A
C1438      C2413   1.478       .  S
O1439      C1445   1.276       .  A
O1439     Cd1442   2.515       .  S
C1440      O1448   1.269       .  A
C1440      C2401   1.486       .  S
C1441      O1446   1.274       .  A
C1441      O1444   1.266       .  A
C1441      C2377   1.474       .  S
Cd1442     O1449   2.409       .  S
Cd1442     O1448   2.453       .  S
Cd1442     O1447   2.394       .  S
Cd1442     O1443   2.476       .  S
Cd1442     O1446   2.498       .  S
Cd1442     O1444   2.402       .  S
C1445      O1449   1.264       .  A
C1445      C2389   1.496       .  S
O1450      C1453   1.274       .  A
O1450     Cd1455   2.508       .  S
C1451      O1460   1.265       .  A
C1451      O1456   1.275       .  A
C1451      C2353   1.486       .  S
O1452      C1458   1.275       .  A
O1452     Cd1455   2.503       .  S
C1453      O1461   1.269       .  A
C1453      C2341   1.494       .  S
C1454      O1459   1.276       .  A
C1454      O1457   1.265       .  A
C1454      C2392   1.497       .  S
Cd1455     O1462   2.414       .  S
Cd1455     O1461   2.439       .  S
Cd1455     O1460   2.412       .  S
Cd1455     O1456   2.478       .  S
Cd1455     O1459   2.509       .  S
Cd1455     O1457   2.425       .  S
C1458      O1462   1.268       .  A
C1458      C2365   1.486       .  S
O1463      C1466   1.277       .  A
O1463     Cd1468   2.495       .  S
C1464      O1473   1.269       .  A
C1464      O1469   1.273       .  A
C1464      C2344   1.500       .  S
O1465      C1471   1.275       .  A
O1465     Cd1468   2.471       .  S
C1466      O1474   1.266       .  A
C1467      O1472   1.274       .  A
C1467      O1470   1.267       .  A
C1467      C2548   1.482       .  S
Cd1468     O1475   2.441       .  S
Cd1468     O1474   2.374       .  S
Cd1468     O1473   2.478       .  S
Cd1468     O1469   2.486       .  S
Cd1468     O1472   2.519       .  S
Cd1468     O1470   2.415       .  S
C1471      O1475   1.267       .  A
C1471      C2329   1.496       .  S
O1476      C1479   1.272       .  A
O1476     Cd1481   2.501       .  S
C1477      O1486   1.267       .  A
C1477      O1482   1.276       .  A
C1477      C2416   1.482       .  S
O1478      C1484   1.277       .  A
O1478     Cd1481   2.536       .  S
C1479      O1487   1.270       .  A
C1480      O1485   1.277       .  A
C1480      O1483   1.267       .  A
C1480      C2485   1.495       .  S
Cd1481     O1488   2.413       .  S
Cd1481     O1487   2.467       .  S
Cd1481     O1486   2.398       .  S
Cd1481     O1482   2.468       .  S
Cd1481     O1485   2.534       .  S
Cd1481     O1483   2.421       .  S
C1484      O1488   1.266       .  A
C1484      C2332   1.500       .  S
O1489      C1492   1.275       .  A
O1489     Cd1494   2.490       .  S
C1490      O1499   1.270       .  A
C1490      O1495   1.274       .  A
C1490      C2305   1.496       .  S
O1491      C1497   1.277       .  A
O1491     Cd1494   2.536       .  S
C1492      O1500   1.267       .  A
C1492      C2317   1.485       .  S
C1493      O1498   1.277       .  A
C1493      O1496   1.267       .  A
C1493      C2296   1.499       .  S
Cd1494     O1501   2.388       .  S
Cd1494     O1500   2.411       .  S
Cd1494     O1499   2.470       .  S
Cd1494     O1495   2.475       .  S
Cd1494     O1498   2.523       .  S
Cd1494     O1496   2.419       .  S
C1497      O1501   1.267       .  A
C1497      C2617   1.492       .  S
O1502      C1505   1.275       .  A
O1502     Cd1507   2.480       .  S
C1503      O1512   1.271       .  A
C1503      O1508   1.273       .  A
C1503      C2269   1.495       .  S
O1504      C1510   1.277       .  A
O1504     Cd1507   2.496       .  S
C1505      O1513   1.267       .  A
C1505      C2281   1.485       .  S
C1506      O1511   1.277       .  A
C1506      O1509   1.267       .  A
C1506      C2425   1.492       .  S
Cd1507     O1514   2.425       .  S
Cd1507     O1513   2.391       .  S
Cd1507     O1512   2.450       .  S
Cd1507     O1508   2.468       .  S
Cd1507     O1511   2.528       .  S
Cd1507     O1509   2.388       .  S
C1510      O1514   1.267       .  A
C1510      C2293   1.497       .  S
O1515      C1518   1.273       .  A
O1515     Cd1520   2.481       .  S
C1516      O1525   1.266       .  A
C1516      O1521   1.275       .  A
O1517      C1523   1.276       .  A
O1517     Cd1520   2.510       .  S
C1518      O1526   1.270       .  A
C1518      C2272   1.495       .  S
C1519      O1524   1.277       .  A
C1519      O1522   1.265       .  A
C1519      C2260   1.498       .  S
Cd1520     O1527   2.395       .  S
Cd1520     O1526   2.458       .  S
Cd1520     O1525   2.414       .  S
Cd1520     O1521   2.477       .  S
Cd1520     O1524   2.504       .  S
Cd1520     O1522   2.413       .  S
C1523      O1527   1.268       .  A
C1523      C2245   1.488       .  S
O1528      C1531   1.273       .  A
O1528     Cd1533   2.479       .  S
C1529      O1538   1.267       .  A
C1529      O1534   1.277       .  A
C1529      C2320   1.482       .  S
O1530      C1536   1.278       .  A
O1530     Cd1533   2.516       .  S
C1531      O1539   1.270       .  A
C1532      O1537   1.278       .  A
C1532      O1535   1.268       .  A
C1532      C2236   1.495       .  S
Cd1533     O1540   2.427       .  S
Cd1533     O1539   2.468       .  S
Cd1533     O1538   2.375       .  S
Cd1533     O1534   2.486       .  S
Cd1533     O1537   2.537       .  S
Cd1533     O1535   2.397       .  S
C1536      O1540   1.266       .  A
C1536      C2257   1.502       .  S
O1541      C1544   1.276       .  A
O1541     Cd1546   2.486       .  S
C1542      O1551   1.270       .  A
C1542      O1547   1.273       .  A
C1542      C2209   1.493       .  S
O1543      C1549   1.277       .  A
O1543     Cd1546   2.514       .  S
C1544      O1552   1.266       .  A
C1544      C2221   1.484       .  S
C1545      O1550   1.277       .  A
C1545      O1548   1.267       .  A
C1545      C2500   1.491       .  S
Cd1546     O1553   2.401       .  S
Cd1546     O1552   2.391       .  S
Cd1546     O1551   2.436       .  S
Cd1546     O1547   2.484       .  S
Cd1546     O1550   2.518       .  S
Cd1546     O1548   2.367       .  S
C1549      O1553   1.266       .  A
C1549      C2197   1.492       .  S
O1554      C1557   1.272       .  A
O1554     Cd1559   2.462       .  S
C1555      O1564   1.267       .  A
C1555      O1560   1.276       .  A
C1555      C2185   1.476       .  S
O1556      C1562   1.279       .  A
O1556     Cd1559   2.494       .  S
C1557      O1565   1.273       .  A
C1557      C2173   1.498       .  S
C1558      O1563   1.278       .  A
C1558      O1561   1.267       .  A
C1558      C2161   1.493       .  S
Cd1559     O1566   2.404       .  S
Cd1559     O1565   2.474       .  S
Cd1559     O1564   2.388       .  S
Cd1559     O1560   2.457       .  S
Cd1559     O1563   2.542       .  S
Cd1559     O1561   2.367       .  S
C1562      O1566   1.266       .  A
C1562      C2200   1.490       .  S
O1567      C1570   1.276       .  A
O1567     Cd1572   2.448       .  S
C1568      O1577   1.271       .  A
C1568      O1573   1.273       .  A
C1568      C2176   1.499       .  S
O1569      C1575   1.277       .  A
O1569     Cd1572   2.527       .  S
C1570      O1578   1.267       .  A
C1570      C2188   1.480       .  S
C1571      O1574   1.265   1_556  A
C1571      C2137   1.495       .  S
Cd1572     O1579   2.399       .  S
Cd1572     O1578   2.385       .  S
Cd1572     O1576   2.511       .  S
C1575      O1579   1.269       .  A
C1575      C2152   1.496       .  S
O1580      C1583   1.273       .  A
C1581      O1590   1.267       .  A
C1581      O1586   1.277       .  A
C1581      C2224   1.479       .  S
O1582      C1588   1.277       .  A
O1582     Cd1585   2.520       .  S
C1583      O1591   1.270       .  A
C1583      C2212   1.491       .  S
C1584      O1589   1.277   1_556  A
C1584      C2140   1.495       .  S
Cd1585     O1592   2.391       .  S
Cd1585     O1590   2.391       .  S
Cd1585     O1586   2.468       .  S
Cd1585     O1589   2.502   1_556  S
C1588      O1592   1.268       .  A
C1588      C2248   1.483       .  S
O1593      C1596   1.276   1_565  A
C1594      O1603   1.263       .  A
C1594      O1599   1.274       .  A
C1594      C2125   1.483       .  S
O1595     Cd1598   2.509       .  S
C1596      O1604   1.270       .  A
C1596      C2113   1.493       .  S
C1597      O1602   1.272       .  A
C1597      O1600   1.267       .  A
C1597      C2452   1.481       .  S
Cd1598     O1603   2.398       .  S
Cd1598     O1599   2.491       .  S
Cd1598     O1602   2.490       .  S
Cd1598     O1600   2.426       .  S
C1601      O1605   1.268   1_545  A
C1601      C2104   1.494   1_545  S
O1606      C1609   1.274       .  A
O1606     Cd1611   2.496   1_556  S
C1607      O1616   1.270       .  A
C1607      O1612   1.272       .  A
C1607      C2065   1.500       .  S
O1608      C1614   1.276       .  A
O1608     Cd1611   2.516       .  S
C1609      O1617   1.264       .  A
C1609      C2077   1.482       .  S
C1610      O1615   1.272       .  A
C1610      O1613   1.266   1_556  A
C1610      C2089   1.485       .  S
Cd1611     O1617   2.376   1_554  S
Cd1611     O1615   2.507   1_554  S
Cd1611     O1613   2.451       .  S
C1614      C2101   1.493       .  S
O1619      C1622   1.279   1_565  A
O1619     Cd1624   2.444   1_565  S
C1620      O1629   1.271       .  A
C1620      O1625   1.274   1_545  A
C1620      C2068   1.503   1_545  S
O1621      C1627   1.278       .  A
O1621     Cd1624   2.478       .  S
C1622      O1630   1.268       .  A
C1622      C2080   1.477   1_545  S
C1623      O1628   1.278       .  A
C1623      O1626   1.269       .  A
C1623      C2041   1.486       .  S
Cd1624     O1631   2.406   1_545  S
Cd1624     O1630   2.414       .  S
Cd1624     O1629   2.459       .  S
Cd1624     O1625   2.505   1_545  S
Cd1624     O1628   2.494       .  S
Cd1624     O1626   2.391       .  S
C1627      O1631   1.267   1_545  A
C1627      C2053   1.492       .  S
O1632      C1635   1.274       .  A
O1632     Cd1637   2.491       .  S
C1633      O1642   1.263       .  A
C1633      O1638   1.274   1_565  A
C1633      C2128   1.485       .  S
O1634      C1640   1.274       .  A
O1634     Cd1637   2.496       .  S
C1635      O1643   1.268       .  A
C1635      C2116   1.498       .  S
C1636      O1641   1.271       .  A
C1636      O1639   1.268       .  A
C1636      C2380   1.481       .  S
Cd1637     O1644   2.425       .  S
Cd1637     O1643   2.446       .  S
Cd1637     O1642   2.398       .  S
Cd1637     O1638   2.509   1_565  S
Cd1637     O1641   2.485       .  S
Cd1637     O1639   2.442       .  S
C1640      O1644   1.264       .  A
C1640      C2056   1.495       .  S
O1645      C1648   1.275       .  A
O1645     Cd1650   2.463       .  S
C1646      O1655   1.268       .  A
C1646      O1651   1.277       .  A
C1646      C2032   1.479       .  S
O1647      C1653   1.278       .  A
O1647     Cd1650   2.495       .  S
C1648      O1656   1.271       .  A
C1648      C2017   1.489       .  S
C1649      O1654   1.278       .  A
C1649      O1652   1.268       .  A
C1649      C2005   1.494       .  S
Cd1650     O1657   2.380       .  S
Cd1650     O1656   2.415       .  S
Cd1650     O1655   2.387       .  S
Cd1650     O1651   2.446       .  S
Cd1650     O1654   2.486       .  S
Cd1650     O1652   2.425       .  S
C1653      O1657   1.269       .  A
C1653      C2044   1.486       .  S
O1658      C1661   1.272       .  A
O1658     Cd1663   2.478       .  S
C1659      O1668   1.265       .  A
C1659      O1664   1.274       .  A
C1659      C1996   1.482       .  S
O1660      C1666   1.276       .  A
O1660     Cd1663   2.512       .  S
C1661      O1669   1.270       .  A
C1661      C1981   1.495       .  S
C1662      O1667   1.275       .  A
C1662      O1665   1.267       .  A
C1662      C2233   1.501       .  S
Cd1663     O1670   2.430       .  S
Cd1663     O1669   2.459       .  S
Cd1663     O1668   2.386       .  S
Cd1663     O1664   2.499       .  S
Cd1663     O1667   2.561       .  S
Cd1663     O1665   2.388       .  S
C1666      O1670   1.266       .  A
C1666      C2008   1.493       .  S
O1671      C1674   1.274       .  A
O1671     Cd1676   2.493       .  S
C1672      O1681   1.266       .  A
C1672      O1677   1.275       .  A
O1673      C1679   1.277       .  A
O1673     Cd1676   2.508       .  S
C1674      O1682   1.269       .  A
C1674      C1984   1.492       .  S
C1675      O1680   1.275       .  A
C1675      O1678   1.268       .  A
C1675      C2569   1.483       .  S
Cd1676     O1683   2.402       .  S
Cd1676     O1682   2.435       .  S
Cd1676     O1681   2.415       .  S
Cd1676     O1677   2.472       .  S
Cd1676     O1680   2.502       .  S
Cd1676     O1678   2.401       .  S
C1679      O1683   1.265       .  A
C1679      C1969   1.496       .  S
O1684      C1687   1.273       .  A
O1684     Cd1689   2.430       .  S
C1685      O1694   1.269       .  A
C1685      O1690   1.277       .  A
C1685      C2029   1.477       .  S
O1686      C1692   1.279       .  A
O1686     Cd1689   2.510       .  S
C1687      O1695   1.272       .  A
C1688      O1693   1.280       .  A
C1688      O1691   1.266       .  A
C1688      C1972   1.499       .  S
Cd1689     O1696   2.383       .  S
Cd1689     O1695   2.436       .  S
Cd1689     O1694   2.361       .  S
Cd1689     O1690   2.451       .  S
Cd1689     O1693   2.512       .  S
Cd1689     O1691   2.391       .  S
C1692      O1696   1.269       .  A
C1692      C1960   1.489       .  S
O1697      C1700   1.277       .  A
O1697     Cd1702   2.424       .  S
C1698      O1707   1.270       .  A
C1698      O1703   1.272       .  A
O1699      C1705   1.279       .  A
O1699     Cd1702   2.506       .  S
C1700      O1708   1.269       .  A
C1700      C1945   1.475       .  S
C1701      O1706   1.279       .  A
C1701      O1704   1.268       .  A
C1701      C2368   1.483       .  S
Cd1702     O1709   2.415       .  S
Cd1702     O1708   2.388       .  S
Cd1702     O1707   2.435       .  S
Cd1702     O1703   2.458       .  S
Cd1702     O1706   2.518       .  S
Cd1702     O1704   2.380       .  S
C1705      O1709   1.267       .  A
C1705      C1921   1.497       .  S
O1710      C1713   1.274       .  A
O1710     Cd1715   2.486       .  S
C1711      O1720   1.268       .  A
C1711      O1716   1.278       .  A
O1712      C1718   1.278       .  A
O1712     Cd1715   2.513       .  S
C1713      O1721   1.270       .  A
C1713      C1897   1.499       .  S
C1714      O1719   1.278       .  A
C1714      O1717   1.269       .  A
C1714      C2149   1.495       .  S
Cd1715     O1722   2.408       .  S
Cd1715     O1721   2.468       .  S
Cd1715     O1720   2.395       .  S
Cd1715     O1716   2.479       .  S
Cd1715     O1719   2.531       .  S
Cd1715     O1717   2.406       .  S
C1718      O1722   1.267       .  A
C1718      C1924   1.498       .  S
O1723      C1726   1.273       .  A
O1723     Cd1728   2.503       .  S
C1724      O1733   1.263       .  A
C1724      O1729   1.274       .  A
C1724      C1912   1.486       .  S
O1725      C1731   1.274       .  A
O1725     Cd1728   2.500       .  S
C1726      O1734   1.268       .  A
C1726      C1900   1.495       .  S
C1727      O1732   1.270       .  A
C1727      O1730   1.267       .  A
C1727      C1873   1.481       .  S
Cd1728     O1735   2.397       .  S
Cd1728     O1734   2.439       .  S
Cd1728     O1733   2.397       .  S
Cd1728     O1729   2.512       .  S
Cd1728     O1732   2.493       .  S
Cd1728     O1730   2.448       .  S
C1731      O1735   1.263       .  A
C1731      C1885   1.492       .  S
O1736      C1739   1.277       .  A
O1736     Cd1741   2.446       .  S
C1737      O1746   1.271       .  A
C1737      O1742   1.274       .  A
C1737      C1936   1.489       .  S
O1738      C1744   1.278       .  A
O1738     Cd1741   2.474       .  S
C1739      O1747   1.268       .  A
C1739      C1948   1.474       .  S
C1740      O1745   1.277       .  A
C1740      O1743   1.270       .  A
C1740      C2605   1.495       .  S
Cd1741     O1748   2.424       .  S
Cd1741     O1747   2.367       .  S
Cd1741     O1746   2.423       .  S
Cd1741     O1742   2.455       .  S
Cd1741     O1745   2.506       .  S
Cd1741     O1743   2.394       .  S
C1744      O1748   1.267       .  A
C1744      C1888   1.494       .  S
O1749      C1752   1.272       .  A
O1749     Cd1754   2.481       .  S
C1750      O1759   1.263       .  A
C1750      O1755   1.274       .  A
C1750      C1861   1.481       .  S
O1751      C1757   1.274       .  A
O1751     Cd1754   2.502       .  S
C1752      O1760   1.269       .  A
C1753      O1758   1.271       .  A
C1753      O1756   1.267       .  A
C1753      C1876   1.479       .  S
Cd1754     O1761   2.426       .  S
Cd1754     O1760   2.456       .  S
Cd1754     O1759   2.387       .  S
Cd1754     O1755   2.511       .  S
Cd1754     O1758   2.494       .  S
Cd1754     O1756   2.431       .  S
C1757      O1761   1.263       .  A
C1757      C1837   1.495       .  S
O1762      C1765   1.274       .  A
O1762     Cd1767   2.484       .  S
C1763      O1772   1.266       .  A
C1763      O1768   1.276       .  A
O1764      C1770   1.276       .  A
O1764     Cd1767   2.505       .  S
C1765      O1773   1.269       .  A
C1765      C1813   1.495       .  S
C1766      O1771   1.276       .  A
C1766      O1769   1.266       .  A
C1766      C1840   1.498       .  S
Cd1767     O1774   2.418       .  S
Cd1767     O1773   2.434       .  S
Cd1767     O1772   2.371       .  S
Cd1767     O1768   2.463       .  S
Cd1767     O1771   2.498       .  S
Cd1767     O1769   2.431       .  S
C1770      O1774   1.267       .  A
C1770      C2092   1.481       .  S
O1775      C1778   1.273       .  A
O1775     Cd1780   2.504       .  S
C1776      O1785   1.265       .  A
C1776      O1781   1.275       .  A
C1776      C1864   1.488       .  S
O1777      C1783   1.273       .  A
O1777     Cd1780   2.484       .  S
C1778      O1786   1.268       .  A
C1778      C1852   1.495       .  S
C1779      O1784   1.274       .  A
C1779      O1782   1.268       .  A
C1779      C2164   1.493       .  S
Cd1780     O1787   2.432       .  S
Cd1780     O1786   2.446       .  S
Cd1780     O1785   2.417       .  S
Cd1780     O1781   2.494       .  S
Cd1780     O1784   2.506       .  S
Cd1780     O1782   2.377       .  S
C1783      O1787   1.266       .  A
C1783      C1801   1.494       .  S
O1788      C1791   1.274       .  A
O1788     Cd1793   2.495       .  S
C1789      O1798   1.268       .  A
C1789      O1794   1.273       .  A
C1789      C1816   1.492       .  S
O1790      C1796   1.274       .  A
O1790     Cd1793   2.502       .  S
C1791      O1799   1.265       .  A
C1791      C1828   1.486       .  S
C1792      O1797   1.274       .  A
C1792      O1795   1.268       .  A
C1792      C1957   1.491       .  S
Cd1793     O1800   2.416       .  S
Cd1793     O1799   2.414       .  S
Cd1793     O1798   2.436       .  S
Cd1793     O1794   2.494       .  S
Cd1793     O1797   2.500       .  S
Cd1793     O1795   2.394       .  S
C1796      O1800   1.266       .  A
C1796      C1804   1.495       .  S
C1801      C1802   1.410       .  A
C1801      C1806   1.413       .  A
C1802      C1803   1.404       .  A
C1802      H1807   1.085       .  S
C1803      C1804   1.414       .  A
C1803      C1810   1.444       .  S
C1804      C1805   1.409       .  A
C1805      C1806   1.401       .  A
C1805      H1808   1.085       .  S
C1806      C1809   1.444       .  S
C1809      N1811   1.157       .  T
C1810      N1812   1.157       .  T
C1813      C1814   1.406       .  A
C1813      C1818   1.418       .  A
C1814      C1815   1.404       .  A
C1814      H1819   1.084       .  S
C1815      C1816   1.416       .  A
C1815      C1822   1.444       .  S
C1816      C1817   1.404       .  A
C1817      C1818   1.404       .  A
C1817      H1820   1.084       .  S
C1818      C1821   1.444       .  S
C1821      N1823   1.157       .  T
C1822      N1824   1.157       .  T
C1825      C1826   1.407       .  A
C1825      C1830   1.408       .  A
C1826      C1827   1.401       .  A
C1826      H1831   1.085       .  S
C1827      C1828   1.411       .  A
C1827      C1834   1.443       .  S
C1828      C1829   1.410       .  A
C1829      C1830   1.403       .  A
C1829      H1832   1.085       .  S
C1830      C1833   1.444       .  S
C1833      N1835   1.157       .  T
C1834      N1836   1.157       .  T
C1837      C1838   1.403       .  A
C1837      C1842   1.420       .  A
C1838      C1839   1.404       .  A
C1838      H1843   1.085       .  S
C1839      C1840   1.421       .  A
C1839      C1846   1.444       .  S
C1840      C1841   1.404       .  A
C1841      C1842   1.404       .  A
C1841      H1844   1.084       .  S
C1842      C1845   1.445       .  S
C1845      N1847   1.158       .  T
C1846      N1848   1.157       .  T
C1849      C1850   1.406       .  A
C1849      C1854   1.418       .  A
C1850      C1851   1.405       .  A
C1850      H1855   1.083       .  S
C1851      C1852   1.416       .  A
C1851      C1858   1.444       .  S
C1852      C1853   1.405       .  A
C1853      C1854   1.407       .  A
C1853      H1856   1.084       .  S
C1854      C1857   1.444       .  S
C1857      N1859   1.157       .  T
C1858      N1860   1.157       .  T
C1861      C1862   1.407       .  A
C1861      C1866   1.409       .  A
C1862      C1863   1.400       .  A
C1862      H1867   1.085       .  S
C1863      C1864   1.411       .  A
C1863      C1870   1.443       .  S
C1864      C1865   1.411       .  A
C1865      C1866   1.404       .  A
C1865      H1868   1.084       .  S
C1866      C1869   1.444       .  S
C1869      N1871   1.157       .  T
C1870      N1872   1.157       .  T
C1873      C1874   1.405       .  A
C1873      C1878   1.410       .  A
C1874      C1875   1.404       .  A
C1874      H1879   1.086       .  S
C1875      C1876   1.409       .  A
C1875      C1882   1.443       .  S
C1876      C1877   1.405       .  A
C1877      C1878   1.405       .  A
C1877      H1880   1.086       .  S
C1878      C1881   1.444       .  S
C1881      N1883   1.157       .  T
C1882      N1884   1.157       .  T
C1885      C1886   1.403       .  A
C1885      C1890   1.420       .  A
C1886      C1887   1.404       .  A
C1886      H1891   1.084       .  S
C1887      C1888   1.422       .  A
C1887      C1894   1.444       .  S
C1888      C1889   1.402       .  A
C1889      C1890   1.400       .  A
C1889      H1892   1.084       .  S
C1890      C1893   1.445       .  S
C1893      N1895   1.157       .  T
C1894      N1896   1.158       .  T
C1897      C1898   1.406       .  A
C1897      C1902   1.418       .  A
C1898      C1899   1.405       .  A
C1898      H1903   1.084       .  S
C1899      C1900   1.415       .  A
C1899      C1906   1.444       .  S
C1900      C1901   1.406       .  A
C1901      C1902   1.408       .  A
C1901      H1904   1.085       .  S
C1902      C1905   1.444       .  S
C1905      N1907   1.157       .  T
C1906      N1908   1.157       .  T
C1909      C1910   1.410       .  A
C1909      C1914   1.410       .  A
C1910      C1911   1.404       .  A
C1910      H1915   1.084       .  S
C1911      C1912   1.411       .  A
C1911      C1918   1.444       .  S
C1912      C1913   1.408       .  A
C1913      C1914   1.400       .  A
C1913      H1916   1.084       .  S
C1914      C1917   1.444   1_556  S
C1918      N1920   1.157       .  T
C1921      C1922   1.412       .  A
C1921      C1926   1.411       .  A
C1922      C1923   1.406       .  A
C1922      H1927   1.085       .  S
C1923      C1924   1.413       .  A
C1923      C1930   1.444       .  S
C1924      C1925   1.411       .  A
C1925      C1926   1.404       .  A
C1925      H1928   1.085       .  S
C1926      C1929   1.443       .  S
C1929      N1931   1.157       .  T
C1930      N1932   1.157       .  T
C1933      C1934   1.405       .  A
C1933      C1938   1.411       .  A
C1934      C1935   1.402       .  A
C1934      H1939   1.085       .  S
C1935      C1936   1.415       .  A
C1935      C1942   1.444       .  S
C1936      C1937   1.408       .  A
C1937      C1938   1.402       .  A
C1937      H1940   1.084       .  S
C1938      C1941   1.444   1_556  S
C1942      N1944   1.157       .  T
C1945      C1946   1.400       .  A
C1945      C1950   1.417       .  A
C1946      C1947   1.395       .  A
C1946      H1951   1.084       .  S
C1947      C1948   1.415       .  A
C1947      C1954   1.445       .  S
C1948      C1949   1.401       .  A
C1949      C1950   1.398       .  A
C1949      H1952   1.084       .  S
C1950      C1953   1.445       .  S
C1953      N1955   1.157       .  T
C1954      N1956   1.157       .  T
C1957      C1958   1.403       .  A
C1957      C1962   1.418       .  A
C1958      C1959   1.395   1_565  A
C1958      H1963   1.085       .  S
C1959      C1960   1.416       .  A
C1959      C1966   1.446       .  S
C1960      C1961   1.406       .  A
C1961      C1962   1.412   1_545  A
C1961      H1964   1.084       .  S
C1962      C1965   1.443       .  S
C1965      N1967   1.157       .  T
C1966      N1968   1.157       .  T
C1969      C1970   1.402       .  A
C1969      C1974   1.421       .  A
C1970      C1971   1.404       .  A
C1970      H1975   1.084       .  S
C1971      C1972   1.423       .  A
C1971      C1978   1.445       .  S
C1972      C1973   1.404       .  A
C1973      C1974   1.405       .  A
C1973      H1976   1.084       .  S
C1974      C1977   1.445       .  S
C1977      N1979   1.158       .  T
C1978      N1980   1.157       .  T
C1981      C1982   1.409       .  A
C1981      C1986   1.416       .  A
C1982      C1983   1.406       .  A
C1982      H1987   1.084       .  S
C1983      C1984   1.414       .  A
C1983      C1990   1.444       .  S
C1984      C1985   1.406       .  A
C1985      C1986   1.403       .  A
C1985      H1988   1.084       .  S
C1986      C1989   1.444       .  S
C1989      N1991   1.157       .  T
C1990      N1992   1.157       .  T
C1993      C1994   1.399       .  A
C1993      C1998   1.418       .  A
C1994      C1995   1.397       .  A
C1994      H1999   1.085       .  S
C1995      C1996   1.416       .  A
C1995      C2002   1.445       .  S
C1996      C1997   1.402       .  A
C1997      C1998   1.404       .  A
C1997      H2000   1.085       .  S
C1998      C2001   1.445       .  S
C2001      N2003   1.157       .  T
C2002      N2004   1.157       .  T
C2005      C2006   1.403       .  A
C2005      C2010   1.419       .  A
C2006      C2007   1.404       .  A
C2006      H2011   1.085       .  S
C2007      C2008   1.419       .  A
C2007      C2014   1.445       .  S
C2008      C2009   1.403       .  A
C2009      C2010   1.405       .  A
C2009      H2012   1.084       .  S
C2010      C2013   1.444       .  S
C2013      N2015   1.157       .  T
C2014      N2016   1.157       .  T
C2017      C2018   1.404       .  A
C2017      C2022   1.416       .  A
C2018      C2019   1.402       .  A
C2018      H2023   1.085       .  S
C2019      C2020   1.416       .  A
C2019      C2026   1.444       .  S
C2020      C2021   1.405       .  A
C2021      C2022   1.403       .  A
C2021      H2024   1.084       .  S
C2022      C2025   1.445       .  S
C2025      N2027   1.158       .  T
C2026      N2028   1.157       .  T
C2029      C2030   1.406       .  A
C2029      C2034   1.410       .  A
C2030      C2031   1.396       .  A
C2030      H2035   1.085       .  S
C2031      C2032   1.409       .  A
C2031      C2038   1.444       .  S
C2032      C2033   1.409       .  A
C2033      C2034   1.400       .  A
C2033      H2036   1.085       .  S
C2034      C2037   1.444       .  S
C2037      N2039   1.158       .  T
C2038      N2040   1.157       .  T
C2041      C2042   1.405       .  A
C2041      C2046   1.416       .  A
C2042      C2043   1.409       .  A
C2042      H2047   1.084       .  S
C2043      C2044   1.415       .  A
C2043      C2050   1.442       .  S
C2044      C2045   1.403       .  A
C2045      C2046   1.396       .  A
C2045      H2048   1.085       .  S
C2046      C2049   1.446       .  S
C2049      N2051   1.157       .  T
C2050      N2052   1.157       .  T
C2053      C2054   1.402       .  A
C2053      C2058   1.420   1_545  A
C2054      C2055   1.402       .  A
C2054      H2059   1.084       .  S
C2055      C2056   1.421   1_545  A
C2055      C2062   1.444       .  S
C2056      C2057   1.404       .  A
C2057      C2058   1.403       .  A
C2057      H2060   1.084       .  S
C2058      C2061   1.445       .  S
C2061      N2063   1.157       .  T
C2062      N2064   1.157       .  T
C2065      C2066   1.408       .  A
C2065      C2070   1.416   1_565  A
C2066      C2067   1.409       .  A
C2066      H2071   1.084       .  S
C2067      C2068   1.418       .  A
C2067      C2074   1.443       .  S
C2068      C2069   1.408   1_565  A
C2069      C2070   1.406       .  A
C2069      H2072   1.084       .  S
C2070      C2073   1.444       .  S
C2073      N2075   1.157       .  T
C2074      N2076   1.157       .  T
C2077      C2078   1.407       .  A
C2077      C2082   1.413   1_565  A
C2078      C2079   1.395       .  A
C2078      H2083   1.085       .  S
C2079      C2080   1.405       .  A
C2079      C2086   1.444       .  S
C2080      C2081   1.408   1_565  A
C2081      C2082   1.405       .  A
C2081      H2084   1.086       .  S
C2082      C2085   1.445       .  S
C2085      N2087   1.158       .  T
C2086      N2088   1.157       .  T
C2089      C2090   1.406       .  A
C2089      C2094   1.413       .  A
C2090      C2091   1.406       .  A
C2090      H2095   1.085       .  S
C2091      C2092   1.409       .  A
C2091      C2098   1.443       .  S
C2092      C2093   1.405       .  A
C2093      C2094   1.405       .  A
C2093      H2096   1.084       .  S
C2094      C2097   1.444   1_556  S
C2098      N2100   1.157       .  T
C2101      C2106   1.420   1_565  A
C2102      C2103   1.402       .  A
C2102      H2107   1.095       .  S
C2103      C2110   1.445       .  S
C2104      C2105   1.402   1_565  A
C2105      C2106   1.401       .  A
C2105      H2108   1.093       .  S
C2106      C2109   1.444       .  S
C2109      N2111   1.157       .  T
C2110      N2112   1.158       .  T
C2113      C2114   1.404   1_545  A
C2113      C2118   1.416       .  A
C2114      C2115   1.404       .  A
C2114      H2119   1.084       .  S
C2115      C2116   1.419       .  A
C2115      C2122   1.444       .  S
C2116      C2117   1.407   1_565  A
C2117      C2118   1.406       .  A
C2117      H2120   1.084       .  S
C2118      C2121   1.444       .  S
C2121      N2123   1.157       .  T
C2122      N2124   1.157       .  T
C2125      C2126   1.408       .  A
C2125      C2130   1.410   1_545  A
C2126      C2127   1.402       .  A
C2126      H2131   1.085       .  S
C2127      C2128   1.410   1_545  A
C2127      C2134   1.444       .  S
C2128      C2129   1.409       .  A
C2129      C2130   1.401       .  A
C2129      H2132   1.084       .  S
C2130      C2133   1.444       .  S
C2133      N2135   1.157       .  T
C2134      N2136   1.157       .  T
C2137      C2142   1.420   1_556  A
C2138      C2139   1.406       .  A
C2138      H2143   1.084       .  S
C2139      C2146   1.444       .  S
C2140      C2141   1.402   1_556  A
C2141      C2142   1.403       .  A
C2141      H2144   1.084       .  S
C2142      C2145   1.445       .  S
C2145      N2147   1.157       .  T
C2146      N2148   1.157       .  T
C2149      C2150   1.408       .  A
C2149      C2154   1.416       .  A
C2150      C2151   1.416       .  A
C2150      H2155   1.084       .  S
C2151      C2152   1.418       .  A
C2151      C2158   1.442       .  S
C2152      C2153   1.403       .  A
C2153      C2154   1.396       .  A
C2153      H2156   1.085       .  S
C2154      C2157   1.445       .  S
C2157      N2159   1.157       .  T
C2158      N2160   1.157       .  T
C2161      C2162   1.409       .  A
C2161      C2166   1.416       .  A
C2162      C2163   1.417       .  A
C2162      H2167   1.084       .  S
C2163      C2164   1.418       .  A
C2163      C2170   1.443       .  S
C2164      C2165   1.401       .  A
C2165      C2166   1.390       .  A
C2165      H2168   1.085       .  S
C2166      C2169   1.446       .  S
C2169      N2171   1.157       .  T
C2170      N2172   1.158       .  T
C2173      C2174   1.407       .  A
C2173      C2178   1.417       .  A
C2174      C2175   1.407       .  A
C2174      H2179   1.084       .  S
C2175      C2176   1.416       .  A
C2175      C2182   1.443       .  S
C2176      C2177   1.407       .  A
C2177      C2178   1.406       .  A
C2177      H2180   1.085       .  S
C2178      C2181   1.444       .  S
C2181      N2183   1.157       .  T
C2182      N2184   1.157       .  T
C2185      C2186   1.400       .  A
C2185      C2190   1.415       .  A
C2186      C2187   1.400       .  A
C2186      H2191   1.084       .  S
C2187      C2188   1.418       .  A
C2187      C2194   1.445       .  S
C2188      C2189   1.401       .  A
C2189      C2190   1.397       .  A
C2189      H2192   1.084       .  S
C2190      C2193   1.445       .  S
C2193      N2195   1.157       .  T
C2194      N2196   1.157       .  T
C2197      C2198   1.404       .  A
C2197      C2202   1.419       .  A
C2198      C2199   1.406       .  A
C2198      H2203   1.084       .  S
C2199      C2200   1.420       .  A
C2199      C2206   1.446       .  S
C2200      C2201   1.400       .  A
C2201      C2202   1.402       .  A
C2201      H2204   1.084       .  S
C2202      C2205   1.444       .  S
C2205      N2207   1.157       .  T
C2206      N2208   1.158       .  T
C2209      C2210   1.407       .  A
C2209      C2214   1.416       .  A
C2210      C2211   1.406       .  A
C2210      H2215   1.084       .  S
C2211      C2212   1.416       .  A
C2211      C2218   1.444       .  S
C2212      C2213   1.404       .  A
C2213      C2214   1.401       .  A
C2213      H2216   1.085       .  S
C2214      C2217   1.444       .  S
C2217      N2219   1.157       .  T
C2218      N2220   1.157       .  T
C2221      C2222   1.409       .  A
C2221      C2226   1.411       .  A
C2222      C2223   1.400       .  A
C2222      H2227   1.082       .  S
C2223      C2224   1.407       .  A
C2223      C2230   1.444       .  S
C2224      C2225   1.408       .  A
C2225      C2226   1.402       .  A
C2225      H2228   1.080       .  S
C2226      C2229   1.444       .  S
C2229      N2231   1.157       .  T
C2230      N2232   1.157       .  T
C2233      C2234   1.404       .  A
C2233      C2238   1.420       .  A
C2234      C2235   1.394   1_655  A
C2234      H2239   1.085       .  S
C2235      C2236   1.415       .  A
C2235      C2242   1.446       .  S
C2236      C2237   1.409       .  A
C2237      C2238   1.418   1_455  A
C2237      H2240   1.084       .  S
C2238      C2241   1.442       .  S
C2241      N2243   1.157       .  T
C2242      N2244   1.157       .  T
C2245      C2246   1.410       .  A
C2245      C2250   1.412       .  A
C2246      C2247   1.413       .  A
C2246      H2251   1.084       .  S
C2247      C2248   1.410       .  A
C2247      C2254   1.442   1_556  S
C2248      C2249   1.403       .  A
C2249      C2250   1.396       .  A
C2250      C2253   1.445       .  S
C2253      N2255   1.157       .  T
C2254      N2256   1.157       .  T
C2257      C2258   1.405       .  A
C2257      C2262   1.423       .  A
C2258      C2259   1.406       .  A
C2258      H2263   1.083       .  S
C2259      C2260   1.422       .  A
C2259      C2266   1.445       .  S
C2260      C2261   1.402       .  A
C2261      C2262   1.404       .  A
C2261      H2264   1.084       .  S
C2262      C2265   1.444       .  S
C2265      N2267   1.157       .  T
C2266      N2268   1.158       .  T
C2269      C2270   1.407       .  A
C2269      C2274   1.416       .  A
C2270      C2271   1.405       .  A
C2270      H2275   1.085       .  S
C2271      C2272   1.415       .  A
C2271      C2278   1.444       .  S
C2272      C2273   1.407       .  A
C2273      C2274   1.406       .  A
C2273      H2276   1.085       .  S
C2274      C2277   1.444       .  S
C2277      N2279   1.157       .  T
C2278      N2280   1.157       .  T
C2281      C2282   1.409       .  A
C2281      C2286   1.412       .  A
C2282      C2283   1.399       .  A
C2282      H2287   1.085       .  S
C2283      C2284   1.408       .  A
C2283      C2290   1.444       .  S
C2284      C2285   1.406       .  A
C2285      C2286   1.401       .  A
C2285      H2288   1.085       .  S
C2286      C2289   1.443       .  S
C2289      N2291   1.157       .  T
C2293      C2294   1.411       .  A
C2293      C2298   1.412       .  A
C2294      C2295   1.407       .  A
C2294      H2299   1.085       .  S
C2295      C2296   1.413       .  A
C2295      C2302   1.443       .  S
C2296      C2297   1.411       .  A
C2297      C2298   1.404       .  A
C2297      H2300   1.085       .  S
C2298      C2301   1.444       .  S
C2301      N2303   1.157       .  T
C2302      N2304   1.157       .  T
C2305      C2306   1.405       .  A
C2305      C2310   1.417       .  A
C2306      C2307   1.404       .  A
C2306      H2311   1.084       .  S
C2307      C2308   1.417       .  A
C2307      C2314   1.444       .  S
C2308      C2309   1.407       .  A
C2309      C2310   1.408       .  A
C2309      H2312   1.084       .  S
C2310      C2313   1.444       .  S
C2313      N2315   1.157       .  T
C2314      N2316   1.157       .  T
C2317      C2318   1.409       .  A
C2317      C2322   1.411       .  A
C2318      C2319   1.402       .  A
C2318      H2323   1.085       .  S
C2319      C2320   1.409       .  A
C2319      C2326   1.444       .  S
C2320      C2321   1.408       .  A
C2321      C2322   1.400       .  A
C2321      H2324   1.085       .  S
C2322      C2325   1.443       .  S
C2325      N2327   1.157       .  T
C2326      N2328   1.157       .  T
C2329      C2330   1.411       .  A
C2329      C2334   1.412       .  A
C2330      C2331   1.408       .  A
C2330      H2335   1.085       .  S
C2331      C2332   1.415       .  A
C2331      C2338   1.443       .  S
C2332      C2333   1.410       .  A
C2333      C2334   1.401       .  A
C2333      H2336   1.085       .  S
C2334      C2337   1.444       .  S
C2337      N2339   1.157       .  T
C2338      N2340   1.157       .  T
C2341      C2342   1.405       .  A
C2341      C2346   1.414       .  A
C2342      C2343   1.403       .  A
C2342      H2347   1.084       .  S
C2343      C2344   1.416       .  A
C2343      C2350   1.443       .  S
C2344      C2345   1.411       .  A
C2345      C2346   1.410       .  A
C2345      H2348   1.084       .  S
C2346      C2349   1.444       .  S
C2349      N2351   1.158       .  T
C2350      N2352   1.157       .  T
C2353      C2354   1.412       .  A
C2353      C2358   1.412       .  A
C2354      C2355   1.403       .  A
C2354      H2359   1.084       .  S
C2355      C2356   1.407       .  A
C2355      C2362   1.445       .  S
C2356      C2357   1.404       .  A
C2357      C2358   1.397       .  A
C2357      H2360   1.086       .  S
C2358      C2361   1.443       .  S
C2361      N2363   1.157       .  T
C2365      C2366   1.409       .  A
C2365      C2370   1.411       .  A
C2366      C2367   1.411       .  A
C2366      H2371   1.084       .  S
C2367      C2368   1.410   1_455  A
C2367      C2374   1.442       .  S
C2368      C2369   1.404       .  A
C2369      C2370   1.397   1_655  A
C2369      H2372   1.085       .  S
C2370      C2373   1.445       .  S
C2373      N2375   1.157       .  T
C2374      N2376   1.157   1_455  T
C2377      C2378   1.403       .  A
C2377      C2382   1.408       .  A
C2378      C2379   1.401       .  A
C2378      H2383   1.087       .  S
C2379      C2380   1.410       .  A
C2379      C2386   1.444       .  S
C2380      C2381   1.407       .  A
C2381      C2382   1.406       .  A
C2381      H2384   1.086       .  S
C2382      C2385   1.443       .  S
C2385      N2387   1.157       .  T
C2386      N2388   1.157       .  T
C2389      C2390   1.403       .  A
C2389      C2394   1.421       .  A
C2390      C2391   1.405       .  A
C2390      H2395   1.084       .  S
C2391      C2392   1.421       .  A
C2391      C2398   1.444       .  S
C2392      C2393   1.404       .  A
C2393      C2394   1.404       .  A
C2393      H2396   1.084       .  S
C2394      C2397   1.445       .  S
C2397      N2399   1.158       .  T
C2398      N2400   1.157       .  T
C2401      C2402   1.405       .  A
C2401      C2406   1.413       .  A
C2402      C2403   1.405       .  A
C2402      H2407   1.085       .  S
C2403      C2404   1.418       .  A
C2403      C2410   1.443       .  S
C2404      C2405   1.408       .  A
C2405      C2406   1.402       .  A
C2405      H2408   1.084       .  S
C2406      C2409   1.445       .  S
C2409      N2411   1.157       .  T
C2413      C2414   1.407       .  A
C2413      C2418   1.409       .  A
C2414      C2415   1.399       .  A
C2414      H2419   1.086       .  S
C2415      C2416   1.410       .  A
C2415      C2422   1.443       .  S
C2416      C2417   1.409       .  A
C2417      C2418   1.400       .  A
C2417      H2420   1.085       .  S
C2418      C2421   1.444       .  S
C2421      N2423   1.157       .  T
C2422      N2424   1.157       .  T
C2425      C2426   1.413       .  A
C2425      C2430   1.415       .  A
C2426      C2427   1.414       .  A
C2426      H2431   1.085       .  S
C2427      C2428   1.410       .  A
C2427      C2434   1.442       .  S
C2428      C2429   1.400       .  A
C2429      C2430   1.393       .  A
C2429      H2432   1.087       .  S
C2430      C2433   1.445       .  S
C2433      N2435   1.157       .  T
C2434      N2436   1.157       .  T
C2437      C2438   1.403       .  A
C2437      C2442   1.419       .  A
C2438      C2439   1.405       .  A
C2438      H2443   1.083       .  S
C2439      C2440   1.419       .  A
C2439      C2446   1.445       .  S
C2440      C2441   1.402       .  A
C2441      C2442   1.402       .  A
C2441      H2444   1.083       .  S
C2442      C2445   1.445       .  S
C2445      N2447   1.157       .  T
C2446      N2448   1.157       .  T
C2449      C2450   1.404       .  A
C2449      C2454   1.407       .  A
C2450      C2451   1.402       .  A
C2450      H2455   1.086       .  S
C2451      C2452   1.410       .  A
C2451      C2458   1.444       .  S
C2452      C2453   1.407       .  A
C2453      C2454   1.406       .  A
C2453      H2456   1.086       .  S
C2454      C2457   1.443       .  S
C2457      N2459   1.157       .  T
C2458      N2460   1.157       .  T
C2461      C2462   1.405       .  A
C2461      C2466   1.417       .  A
C2462      C2463   1.402       .  A
C2462      H2467   1.084       .  S
C2463      C2464   1.415       .  A
C2463      C2470   1.444       .  S
C2464      C2465   1.406       .  A
C2465      C2466   1.406       .  A
C2465      H2468   1.084       .  S
C2466      C2469   1.444       .  S
C2469      N2471   1.157       .  T
C2470      N2472   1.157       .  T
C2473      C2474   1.409       .  A
C2473      C2478   1.411       .  A
C2474      C2475   1.403       .  A
C2474      H2479   1.084       .  S
C2475      C2476   1.411       .  A
C2475      C2482   1.444   1_556  S
C2476      C2477   1.408       .  A
C2477      C2478   1.402       .  A
C2477      H2480   1.084       .  S
C2478      C2481   1.444       .  S
C2481      N2483   1.157       .  T
C2485      C2486   1.407       .  A
C2485      C2490   1.417       .  A
C2486      C2487   1.415   1_565  A
C2486      H2491   1.084       .  S
C2487      C2488   1.418       .  A
C2487      C2494   1.442       .  S
C2488      C2489   1.403       .  A
C2489      C2490   1.399   1_545  A
C2489      H2492   1.085       .  S
C2490      C2493   1.444       .  S
C2493      N2495   1.157       .  T
C2494      N2496   1.157       .  T
C2497      C2498   1.407       .  A
C2497      C2502   1.415       .  A
C2498      C2499   1.415       .  A
C2498      H2503   1.084       .  S
C2499      C2500   1.418       .  A
C2499      C2506   1.443       .  S
C2500      C2501   1.402       .  A
C2501      C2502   1.392       .  A
C2501      H2504   1.085       .  S
C2502      C2505   1.446       .  S
C2505      N2507   1.157       .  T
C2506      N2508   1.157       .  T
C2509      C2510   1.403       .  A
C2509      C2514   1.423       .  A
C2510      C2511   1.406       .  A
C2510      H2515   1.084       .  S
C2511      C2512   1.423       .  A
C2511      C2518   1.444       .  S
C2512      C2513   1.404       .  A
C2513      C2514   1.406       .  A
C2513      H2516   1.084       .  S
C2514      C2517   1.445       .  S
C2517      N2519   1.158       .  T
C2518      N2520   1.157       .  T
C2521      C2522   1.406       .  A
C2521      C2526   1.415       .  A
C2522      C2523   1.404       .  A
C2522      H2527   1.085       .  S
C2523      C2524   1.416       .  A
C2524      C2525   1.407       .  A
C2525      C2526   1.403       .  A
C2525      H2528   1.085       .  S
C2526      C2529   1.444       .  S
C2529      N2531   1.157       .  T
C2530      N2532   1.157       .  T
C2533      C2534   1.399       .  A
C2533      C2538   1.417       .  A
C2534      C2535   1.399       .  A
C2534      H2539   1.085       .  S
C2535      C2536   1.419       .  A
C2535      C2542   1.445       .  S
C2536      C2537   1.403       .  A
C2537      C2538   1.404       .  A
C2537      H2540   1.084       .  S
C2538      C2541   1.445       .  S
C2541      N2543   1.157       .  T
C2542      N2544   1.157       .  T
C2545      C2546   1.409       .  A
C2545      C2550   1.411   1_556  A
C2546      C2547   1.411       .  A
C2546      H2551   1.082       .  S
C2547      C2548   1.409       .  A
C2547      C2554   1.443       .  S
C2548      C2549   1.404       .  A
C2549      C2550   1.401   1_556  A
C2549      H2552   1.085       .  S
C2553      N2555   1.158       .  T
C2554      N2556   1.157       .  T
C2557      C2558   1.410   1_455  A
C2558      C2559   1.403       .  A
C2558      H2563   1.085       .  S
C2559      C2560   1.413       .  A
C2559      C2566   1.443       .  S
C2561      C2562   1.401       .  A
C2561      H2564   1.085       .  S
C2562      C2565   1.443       .  S
C2565      N2567   1.157       .  T
C2566      N2568   1.157       .  T
C2569      C2570   1.408       .  A
C2569      C2574   1.411       .  A
C2570      C2571   1.409       .  A
C2570      H2575   1.084       .  S
C2571      C2572   1.410       .  A
C2571      C2578   1.442       .  S
C2572      C2573   1.405       .  A
C2573      C2574   1.399       .  A
C2573      H2576   1.086       .  S
C2574      C2577   1.446       .  S
C2577      N2579   1.158       .  T
C2578      N2580   1.157       .  T
C2581      C2582   1.405   1_655  A
C2581      C2586   1.416       .  A
C2582      C2583   1.403       .  A
C2582      H2587   1.084       .  S
C2583      C2584   1.417       .  A
C2583      C2590   1.445       .  S
C2584      C2585   1.406   1_455  A
C2585      C2586   1.405       .  A
C2585      H2588   1.084       .  S
C2586      C2589   1.444       .  S
C2589      N2591   1.157       .  T
C2590      N2592   1.157       .  T
C2593      C2594   1.399       .  A
C2593      C2598   1.417   1_455  A
C2594      C2595   1.401       .  A
C2594      H2599   1.085       .  S
C2595      C2596   1.420       .  A
C2595      C2602   1.443       .  S
C2596      C2597   1.403   1_455  A
C2597      C2598   1.402       .  A
C2597      H2600   1.084       .  S
C2598      C2601   1.445       .  S
C2601      N2603   1.157       .  T
C2602      N2604   1.157       .  T
C2605      C2606   1.403       .  A
C2605      C2610   1.418       .  A
C2606      C2607   1.395       .  A
C2606      H2611   1.085       .  S
C2607      C2608   1.416       .  A
C2607      C2614   1.446       .  S
C2608      C2609   1.407       .  A
C2609      C2610   1.414       .  A
C2609      H2612   1.084       .  S
C2610      C2613   1.442       .  S
C2613      N2615   1.157       .  T
C2614      N2616   1.157       .  T
C2617      C2618   1.411       .  A
C2617      C2622   1.413       .  A
C2618      C2619   1.416       .  A
C2618      H2623   1.084       .  S
C2619      C2620   1.413       .  A
C2619      C2626   1.442       .  S
C2620      C2621   1.401       .  A
C2621      C2622   1.395       .  A
C2621      H2624   1.086       .  S
C2622      C2625   1.445       .  S
C2625      N2627   1.157       .  T
C2626      N2628   1.157       .  T
C2629      C2630   1.403       .  A
C2629      C2634   1.423   1_655  A
C2630      C2631   1.404       .  A
C2630      H2635   1.084       .  S
C2631      C2632   1.422   1_655  A
C2631      C2638   1.445       .  S
C2632      C2633   1.403       .  A
C2633      C2634   1.405       .  A
C2633      H2636   1.084       .  S
C2634      C2637   1.445       .  S
C2637      N2639   1.157       .  T
C2638      N2640   1.157       .  T
C2641      C2642   1.404       .  A
C2641      C2646   1.416   1_455  A
C2642      C2643   1.400       .  A
C2642      H2647   1.085       .  S
C2643      C2644   1.415   1_455  A
C2643      C2650   1.444       .  S
C2644      C2645   1.409       .  A
C2645      C2646   1.407       .  A
C2645      H2648   1.085       .  S
C2646      C2649   1.445       .  S
C2649      N2651   1.158       .  T
C2650      N2652   1.157       .  T
C2653      C2654   1.407       .  A
C2653      C2658   1.408   1_455  A
C2654      C2655   1.403       .  A
C2654      H2659   1.085       .  S
C2655      C2656   1.411   1_455  A
C2655      C2662   1.443       .  S
C2656      C2657   1.409       .  A
C2657      C2658   1.399       .  A
C2657      H2660   1.085       .  S
C2658      C2661   1.444       .  S
C2661      N2663   1.157       .  T
C2662      N2664   1.157       .  T
