geometry optimzed in LAMMPS
_audit_creation_date              2020-12-01 
_audit_creation_method            'lammps2cif' 
_symmetry_space_group_name_H-M    'P1' 
_symmetry_Int_Tables_number       1 
_symmetry_cell_setting            triclinic 
loop_ 
_symmetry_equiv_pos_as_xyz 
  x,y,z 
_cell_length_a                    28.53952013 
_cell_length_b                    28.52828302876016 
_cell_length_c                    28.531084292686785 
_cell_angle_alpha                 89.84851901416607 
_cell_angle_beta                  90.30432420000658 
_cell_angle_gamma                 90.72295797859056 
loop_ 
_atom_site_label 
_atom_site_type_symbol 
_atom_site_fract_x 
_atom_site_fract_y 
_atom_site_fract_z 
_atom_site_charge 
C1          C  0.66962133  0.38889470  0.32726380     0.05000
C2          C  0.68994619  0.36599600  0.36543558    -0.11200
C3          C  0.67201633  0.32271115  0.38007265     0.02500
C4          C  0.63212252  0.30365692  0.35851947    -0.09700
C5          C  0.61166858  0.32684020  0.32054486     0.05000
C6          C  0.62967283  0.37006476  0.30557946    -0.09100
H7          H  0.72335156  0.37844342  0.37926714     0.10600
H8          H  0.62087548  0.26820034  0.36715226     0.08100
H9          H  0.61677337  0.38555140  0.27327972     0.07900
C10         C  0.66848822  0.68634783  0.32098681     0.05000
C11         C  0.67844578  0.70085088  0.36665991    -0.11200
C12         C  0.65684498  0.74059139  0.38457041     0.02500
C13         C  0.62232254  0.76326514  0.35842785    -0.09700
C14         C  0.61187107  0.74802993  0.31303492     0.05000
C15         C  0.63379688  0.70864963  0.29483939    -0.09100
H16         H  0.70861054  0.68653446  0.38481751     0.10600
H17         H  0.60916859  0.79670958  0.37032104     0.08100
H18         H  0.62926036  0.70006267  0.25802820     0.07900
C19         C  0.32708244  0.75380584  0.31799948     0.05000
C20         C  0.30590099  0.77550695  0.35614164    -0.11200
C21         C  0.27300092  0.75067351  0.38288138     0.02500
C22         C  0.26319441  0.70363870  0.37308407    -0.09700
C23         C  0.28322963  0.68263822  0.33398815     0.05000
C24         C  0.31701662  0.70688555  0.30791947    -0.09100
H25         H  0.31009913  0.81305692  0.36093985     0.10600
H26         H  0.23390157  0.68633610  0.39040294     0.08100
H27         H  0.32934957  0.69199908  0.27531455     0.07900
C28         C  0.33137851  0.72962038  0.72912369     0.05000
C29         C  0.31310029  0.69084422  0.75325690    -0.11200
C30         C  0.26816373  0.67405877  0.74234888     0.02500
C31         C  0.24259799  0.69435729  0.70587740    -0.09700
C32         C  0.26102114  0.73300755  0.68188557     0.05000
C33         C  0.30601676  0.74969079  0.69236244    -0.09100
H34         H  0.33070579  0.67830932  0.78459875     0.10600
H35         H  0.20620659  0.68415297  0.70041679     0.08100
H36         H  0.31825886  0.78234846  0.67678949     0.07900
C37         C  0.68516590  0.32895568  0.68290456     0.05000
C38         C  0.63773859  0.32288956  0.69330695    -0.11200
C39         C  0.61935024  0.34369039  0.73336314     0.02500
C40         C  0.64712026  0.37413997  0.76025520    -0.09700
C41         C  0.69442040  0.38040175  0.74946171     0.05000
C42         C  0.71321080  0.35892057  0.71004039    -0.09100
H43         H  0.61767385  0.29564084  0.67546174     0.10600
H44         H  0.63411160  0.38671894  0.79356788     0.08100
H45         H  0.75080213  0.36021241  0.70445761     0.07900
C46         C  0.67800453  0.71849060  0.67603744     0.05000
C47         C  0.63927944  0.74005346  0.69597501    -0.11200
C48         C  0.62627971  0.72898491  0.74178305     0.02500
C49         C  0.64900290  0.69325903  0.76605453    -0.09700
C50         C  0.68721673  0.67113348  0.74571190     0.05000
C51         C  0.70102155  0.68280086  0.70020281    -0.09100
H52         H  0.62466793  0.77084694  0.67920860     0.10600
H53         H  0.64162198  0.68771205  0.80295768     0.08100
H54         H  0.73374771  0.66947961  0.68671361     0.07900
C55         C  0.31787683  0.33098190  0.72576053     0.05000
C56         C  0.29147806  0.31153033  0.68918450    -0.11200
C57         C  0.24451595  0.32363072  0.68368236     0.02500
C58         C  0.22481177  0.35734093  0.71271070    -0.09700
C59         C  0.25155702  0.37709659  0.74890403     0.05000
C60         C  0.29854730  0.36525835  0.75439402    -0.09100
H61         H  0.30503038  0.28181068  0.67007076     0.10600
H62         H  0.18734249  0.36330521  0.71127196     0.08100
H63         H  0.31755790  0.37693514  0.78538327     0.07900
C64         C  0.31189749  0.30969238  0.31405098     0.05000
C65         C  0.29238605  0.28505957  0.35169054    -0.11200
C66         C  0.26024189  0.30707348  0.38079347     0.02500
C67         C  0.24925538  0.35410691  0.37358400    -0.09700
C68         C  0.26863817  0.37840657  0.33568297     0.05000
C69         C  0.30138915  0.35679845  0.30701255    -0.09100
H70         H  0.29742111  0.24751259  0.35457797     0.10600
H71         H  0.22064574  0.36945769  0.39293981     0.08100
H72         H  0.31297889  0.37425578  0.27517616     0.07900
O73         O  0.02765683  0.08980575  0.53409847    -0.53600
O74         O  0.85465041  0.18826326  0.49168605    -0.61500
C75         C  0.81904165  0.17105828  0.47077623     0.99300
O76         O  0.17994012  0.98582774  0.51330350    -0.66700
O77         O  0.10005826  0.02108840  0.57485824    -0.64600
C78         C  0.71997274  0.01700902  0.51174805     0.91400
O79         O  0.92188743  0.24140909  0.55115448    -0.66800
C80         C  0.81115477  0.15910404  0.60053297     0.99000
C81         C  0.96215602  0.26151964  0.55587260     0.91900
Ti82       Ti  0.90438400  0.16674092  0.54255849     1.51200
Ti83       Ti  0.01569595  0.87629646  0.53608755     1.51300
O84         O  0.95729959  0.14694647  0.59258349    -0.60600
O85         O  0.83336177  0.02578225  0.47475494    -0.64600
C86         C  0.10956263  0.88152173  0.59280827     0.99400
O87         O  0.89302185  0.95437848  0.53015370    -0.53700
C88         C  0.82098406  0.87719433  0.46687419     0.99100
Ti89       Ti  0.81368947  0.07606454  0.52675044     1.51000
Ti90       Ti  0.01329137  0.16391731  0.54514892     1.53000
Ti91       Ti  0.10195220  0.07647199  0.52337725     1.49300
O92         O  0.79684196  0.91165576  0.56531141    -0.60300
O93         O  0.74455105  0.97984534  0.51008813    -0.66700
O94         O  0.99986921  0.23767311  0.55606719    -0.66800
O95         O  0.88767837  0.09292385  0.53441840    -0.53600
O96         O  0.08555325  0.02216534  0.47374240    -0.64600
O97         O  0.06619592  0.85628106  0.48528290    -0.61400
O98         O  0.95973995  0.16160074  0.49163016    -0.60700
O99         O  0.85922272  0.87543962  0.59542083    -0.62000
O100        O  0.99769683  0.80142733  0.54362408    -0.66800
O101        O  0.85275338  0.17456392  0.59500435    -0.61500
O102        O  0.03178090  0.95049798  0.52936183    -0.53600
C103        C  0.95716900  0.78177842  0.54838199     0.91900
O104        O  0.82047997  0.01876450  0.57577037    -0.64600
O105        O  0.06219890  0.16755411  0.60073909    -0.62100
O106        O  0.06737886  0.86723437  0.58889527    -0.61400
C107        C  0.10550871  0.15842034  0.59983030     0.99300
C108        C  0.81545198  0.88093029  0.59141286     0.99200
C109        C  0.19981687  0.02640230  0.51054084     0.91300
O110        O  0.12734037  0.91604281  0.57065425    -0.60800
O111        O  0.80347399  0.12944648  0.47592568    -0.60800
C112        C  0.10008071  0.87557899  0.46332798     0.98900
Ti113      Ti  0.10543119  0.96767051  0.52171548     1.51000
O114        O  0.85180543  0.85834887  0.49278845    -0.62000
O115        O  0.79309549  0.12401376  0.57941847    -0.60800
O116        O  0.10610410  0.12674821  0.46926722    -0.60400
O117        O  0.91975701  0.80601855  0.54872165    -0.66900
O118        O  0.06623765  0.18742671  0.49778572    -0.62000
O119        O  0.17584114  0.06397380  0.51261094    -0.66500
O120        O  0.81563215  0.92101626  0.46313522    -0.60300
Ti121      Ti  0.90688728  0.87990299  0.53927937     1.53200
O122        O  0.12388300  0.12826198  0.57310544    -0.60300
O123        O  0.95962267  0.88273324  0.48526548    -0.60700
O124        O  0.11274791  0.91826597  0.46713736    -0.60800
C125        C  0.09693597  0.16996054  0.47123616     0.99300
O126        O  0.73920496  0.05747047  0.51830290    -0.66800
Ti127      Ti  0.81852959  0.96760570  0.52028612     1.49500
O128        O  0.96366033  0.89510432  0.58648420    -0.60700
O129        O  0.47154798  0.96888956  0.08255289    -0.53600
O130        O  0.50411389  0.14846224  0.17691155    -0.61500
C131        C  0.52378252  0.18492955  0.16055704     0.99300
O132        O  0.49556598  0.82250402  0.97338662    -0.66700
O133        O  0.43100892  0.90052769  0.00763909    -0.64600
C134        C  0.48291678  0.27998792  0.00868760     0.91400
O135        O  0.45010596  0.07921192  0.22857681    -0.66800
C136        C  0.39318296  0.18206665  0.14510179     0.99000
C137        C  0.45294797  0.04117077  0.25216580     0.91900
Ti138      Ti  0.45777509  0.09432213  0.15467168     1.51200
Ti139      Ti  0.47427163  0.98418244  0.86623884     1.51300
O140        O  0.41213373  0.03573606  0.13894554    -0.60600
O141        O  0.52466323  0.16884223  0.01621020    -0.64600
C142        C  0.42183189  0.88894462  0.86703768     0.99400
O143        O  0.47406457  0.10733467  0.94278160    -0.53700
C144        C  0.53738165  0.18191255  0.86848895     0.99100
Ti145      Ti  0.47022468  0.18501955  0.06496475     1.51000
Ti146      Ti  0.46527498  0.98543153  0.15688161     1.53000
Ti147      Ti  0.47826507  0.89448002  0.06658994     1.49300
O148        O  0.43590364  0.20151838  0.90033894    -0.60300
O149        O  0.48681559  0.25621633  0.97098270    -0.66700
O150        O  0.45898425  0.00167984  0.23173114    -0.66800
O151        O  0.46525498  0.11037487  0.08074259    -0.53600
O152        O  0.53187807  0.91294038  0.01659402    -0.64600
O153        O  0.52661738  0.93453290  0.84853090    -0.61400
O154        O  0.51324723  0.04388088  0.14970377    -0.58200
O155        O  0.41176371  0.13847101  0.85990828    -0.62000
O156        O  0.46866373  0.00017119  0.79129543    -0.66800
O157        O  0.40111508  0.14114044  0.16080521    -0.61500
O158        O  0.47952717  0.96967456  0.94102398    -0.53600
C159        C  0.46485548  0.04004099  0.77072406     0.91900
O160        O  0.42328363  0.17602910  0.00624119    -0.64600
O161        O  0.41542639  0.93089331  0.16774767    -0.62100
O162        O  0.42252948  0.93162972  0.85471944    -0.61400
C163        C  0.40601837  0.89084477  0.15050540     0.99300
C164        C  0.41255751  0.18215348  0.86762634     0.99200
C165        C  0.49179189  0.79912854  0.01150111     0.91300
O166        O  0.44321860  0.87280485  0.90244017    -0.60800
O167        O  0.51963969  0.19910561  0.11871144    -0.60800
C168        C  0.54936629  0.90218693  0.86900599     0.98900
Ti169      Ti  0.48754215  0.89614556  0.95771576     1.51000
O170        O  0.51453038  0.14890278  0.84880881    -0.62000
O171        O  0.41494878  0.20187525  0.11147939    -0.60800
O172        O  0.52794602  0.88427592  0.12089918    -0.60400
O173        O  0.46354540  0.07819511  0.79410567    -0.66900
O174        O  0.51934201  0.93909174  0.17686129    -0.62000
O175        O  0.48489522  0.81970419  0.05077122    -0.66500
O176        O  0.53846738  0.18871966  0.91231995    -0.60300
Ti177      Ti  0.46872583  0.09263146  0.86821261     1.53200
O178        O  0.42393213  0.87425112  0.11346449    -0.60300
O179        O  0.52376110  0.04164691  0.87415864    -0.60700
O180        O  0.54529487  0.89091625  0.91192768    -0.60800
C181        C  0.53734854  0.90211275  0.16059116     0.99300
O182        O  0.47550120  0.25978685  0.04824022    -0.66800
Ti183      Ti  0.48023251  0.18192230  0.95708739     1.49500
O184        O  0.42212816  0.03499665  0.88208461    -0.60700
O185        O  0.90935785  0.53292657  0.97875657    -0.53600
O186        O  0.81294914  0.50400279  0.15666058    -0.61500
C187        C  0.82947999  0.48288518  0.19192511     0.99300
O188        O  0.02083589  0.51472349  0.83325072    -0.66700
O189        O  0.98352106  0.57638139  0.91242550    -0.64600
C190        C  0.97766496  0.53080856  0.29123571     0.91400
O191        O  0.76127538  0.55434859  0.08527468    -0.66800
C192        C  0.83924595  0.61213224  0.19039935     0.99000
C193        C  0.73834925  0.54905226  0.04696018     0.91900
Ti194      Ti  0.83510411  0.54893753  0.10200742     1.51200
Ti195      Ti  0.12564419  0.53460645  0.99883235     1.51300
O196        O  0.85045353  0.59285168  0.04252951    -0.60600
O197        O  0.97494650  0.48788309  0.17982067    -0.64600
C198        C  0.12598458  0.58880495  0.90292690     0.99400
O199        O  0.04698155  0.54096967  0.12018048    -0.53700
C200        C  0.12136379  0.47970289  0.19629586     0.99100
Ti201      Ti  0.92292922  0.53897317  0.19467079     1.51000
Ti202      Ti  0.83455699  0.53712032  0.99356260     1.53000
Ti203      Ti  0.92660360  0.52661496  0.90470728     1.49300
O204        O  0.08672882  0.58269686  0.21422913    -0.60300
O205        O  0.01613390  0.53075942  0.26843130    -0.66700
O206        O  0.75946198  0.54134616  0.00820956    -0.66800
O207        O  0.90888873  0.54377344  0.11965705    -0.53600
O208        O  0.97850278  0.47508172  0.92281340    -0.64600
O209        O  0.14273343  0.47834257  0.95360984    -0.61400
O210        O  0.84210682  0.49170801  0.05332888    -0.60700
O211        O  0.12852282  0.60521909  0.15145178    -0.62000
O212        O  0.20018488  0.53936677  0.01657529    -0.66800
O213        O  0.82742032  0.60681693  0.14764948    -0.61500
O214        O  0.05121628  0.52999515  0.98171125    -0.53600
C215        C  0.22020338  0.54731066  0.05617387     0.91900
O216        O  0.97946088  0.58969583  0.18749142    -0.64600
O217        O  0.82225498  0.58468755  0.93793788    -0.62100
O218        O  0.14095898  0.58252765  0.94426959    -0.61400
C219        C  0.84064428  0.59505975  0.89885236     0.99300
C220        C  0.12027885  0.60516831  0.19509535     0.99200
C221        C  0.98256720  0.51605394  0.80971144     0.91300
O222        O  0.08864584  0.57081986  0.88632993    -0.60800
O223        O  0.87165174  0.48597295  0.20561805    -0.60800
C224        C  0.12430047  0.45816453  0.91820149     0.98900
Ti225      Ti  0.03572113  0.52252994  0.90746879     1.51000
O226        O  0.14080518  0.50286598  0.16369716    -0.62000
O227        O  0.87222841  0.59051390  0.21110439    -0.60800
O228        O  0.87391385  0.47472878  0.89373257    -0.60400
O229        O  0.19620483  0.55244053  0.09352817    -0.66900
O230        O  0.81739870  0.48027477  0.94836771    -0.62000
O231        O  0.94301174  0.52056532  0.83018718    -0.66500
O232        O  0.07778467  0.47942074  0.20417511    -0.60300
Ti233      Ti  0.12170078  0.54663500  0.10666201     1.53200
O234        O  0.87904006  0.57917034  0.88387837    -0.60300
O235        O  0.11559811  0.48895870  0.05817718    -0.60700
O236        O  0.08436392  0.46739468  0.90070299    -0.60800
C237        C  0.83491243  0.46268007  0.91161639     0.99300
O238        O  0.93799136  0.53364011  0.27001087    -0.66800
Ti239      Ti  0.03141880  0.53570281  0.19449998     1.49500
O240        O  0.10939765  0.59019427  0.04665547    -0.60700
N241        N  0.95165007  0.46933439  0.49927397    -0.34800
N242        N  0.96282927  0.57275201  0.49734109    -0.55300
N243        N  0.96540427  0.57379128  0.60090499    -0.34800
N244        N  0.95351959  0.47013476  0.60301152    -0.55300
C245        C  0.94407121  0.47781860  0.45272633     0.28800
C246        C  0.94018843  0.42359160  0.50826165     0.28800
C247        C  0.96715909  0.62089878  0.59227961     0.28800
C248        C  0.96010271  0.56701414  0.64793904     0.28800
C249        C  0.96332712  0.56457237  0.45033672     0.37400
C250        C  0.97248161  0.61917665  0.50384597     0.37400
C251        C  0.95018930  0.42287631  0.59643182     0.37400
C252        C  0.95622917  0.47805476  0.65005616     0.37400
C253        C  0.92840561  0.43656925  0.43191739    -0.20100
C254        C  0.92605442  0.40272396  0.46652446    -0.20100
C255        C  0.96366123  0.64424085  0.63465753    -0.20100
C256        C  0.95900717  0.61064925  0.66936204    -0.20100
C257        C  0.97260909  0.60637603  0.42701479    -0.21100
C258        C  0.97863779  0.64052017  0.46056450    -0.21100
C259        C  0.95049285  0.40077266  0.63976783    -0.21100
C260        C  0.95414946  0.43534374  0.67337558    -0.21100
C261        C  0.95251889  0.52090671  0.42769566    -0.16500
C262        C  0.94318514  0.39933405  0.55243215    -0.16500
C263        C  0.95771526  0.52300652  0.67274506    -0.16500
C264        C  0.97353955  0.64364653  0.54767950    -0.16500
H265        H  0.91980188  0.43109682  0.39533990     0.16400
H266        H  0.91519180  0.36663941  0.46123464     0.16400
H267        H  0.96455418  0.68172397  0.64029696     0.16400
H268        H  0.95580020  0.61780063  0.70642799     0.16400
H269        H  0.97420346  0.61221441  0.38959539     0.14700
H270        H  0.98578199  0.67722412  0.45362692     0.14700
H271        H  0.94720934  0.36357878  0.64671084     0.14700
H272        H  0.95437917  0.42947855  0.71084945     0.14700
H273        H  0.96737437  0.49227684  0.52267277     0.28000
H274        H  0.97051793  0.54778417  0.57651490     0.28000
N275        N  0.51174101  0.02528685  0.46101428    -0.34800
N276        N  0.51151362  0.02440146  0.56447600    -0.55300
N277        N  0.40788980  0.01613520  0.56332733    -0.34800
N278        N  0.40792558  0.01651957  0.45964553    -0.55300
C279        C  0.55889432  0.02719764  0.46927183     0.28800
C280        C  0.50440753  0.02042531  0.41400556     0.28800
C281        C  0.41690541  0.00754764  0.60955518     0.28800
C282        C  0.36223785  0.00427600  0.55449923     0.28800
C283        C  0.55798466  0.03326150  0.55772665     0.37400
C284        C  0.50366985  0.02568604  0.61146919     0.37400
C285        C  0.41542848  0.01907283  0.41255157     0.37400
C286        C  0.36070413  0.01507615  0.46661359     0.37400
C287        C  0.58174732  0.02411653  0.42662743    -0.20100
C288        C  0.54778175  0.01958252  0.39217588    -0.20100
C289        C  0.37612503  0.99096541  0.63038833    -0.20100
C290        C  0.34196124  0.98897749  0.59603682    -0.20100
C291        C  0.57965774  0.03976540  0.60091555    -0.21100
C292        C  0.54560594  0.03482705  0.63463463    -0.21100
C293        C  0.37243374  0.01911260  0.38961210    -0.21100
C294        C  0.33814575  0.01678210  0.42351231    -0.21100
C295        C  0.58209127  0.03353224  0.51374983    -0.16500
C296        C  0.46014766  0.01851040  0.38953193    -0.16500
C297        C  0.33754466  0.00784598  0.51065330    -0.16500
C298        C  0.46016710  0.01549116  0.63428302    -0.16500
H299        H  0.61913225  0.02534173  0.42062065     0.16400
H300        H  0.55449968  0.01685597  0.35499526     0.16400
H301        H  0.37128038  0.98131221  0.66676663     0.16400
H302        H  0.30610234  0.97745471  0.60129957     0.16400
H303        H  0.61646319  0.04655473  0.60768670     0.14700
H304        H  0.55139282  0.03711563  0.67207011     0.14700
H305        H  0.36614448  0.01982253  0.35220274     0.14700
H306        H  0.30079435  0.01511387  0.41691967     0.14700
H307        H  0.48591794  0.02956122  0.48582224     0.28000
H308        H  0.43043881  0.03283762  0.54010240     0.28000
N309        N  0.52983395  0.48741111  0.02218544    -0.34800
N310        N  0.53219027  0.59142367  0.02780723    -0.55300
N311        N  0.42869076  0.59106859  0.03789043    -0.34800
N312        N  0.42667255  0.48757958  0.03223275    -0.55300
C313        C  0.57708930  0.49515260  0.02364952     0.28800
C314        C  0.52165793  0.44048462  0.02810495     0.28800
C315        C  0.43711477  0.63819954  0.03591798     0.28800
C316        C  0.38137946  0.58360660  0.03502968     0.28800
C317        C  0.57901825  0.58401282  0.02314231     0.37400
C318        C  0.52576300  0.63863833  0.02998983     0.37400
C319        C  0.43310152  0.44040729  0.03185045     0.37400
C320        C  0.37966770  0.49491364  0.03332780     0.37400
C321        C  0.59902090  0.45233810  0.02930439    -0.20100
C322        C  0.56442470  0.41826693  0.03233329    -0.20100
C323        C  0.39439312  0.66080524  0.03302571    -0.20100
C324        C  0.35965628  0.62673500  0.03214502    -0.20100
C325        C  0.60227107  0.62695374  0.02180762    -0.21100
C326        C  0.56898528  0.66115299  0.02668780    -0.21100
C327        C  0.38980179  0.41780374  0.03294992    -0.21100
C328        C  0.35627374  0.45200321  0.03369224    -0.21100
C329        C  0.60166802  0.53938483  0.02128829    -0.16500
C330        C  0.47703777  0.41676247  0.03106097    -0.16500
C331        C  0.35683439  0.53931915  0.03352517    -0.16500
C332        C  0.48179300  0.66208103  0.03503499    -0.16500
H333        H  0.63626921  0.44621601  0.03224731     0.16400
H334        H  0.57032732  0.38127337  0.03788464     0.16400
H335        H  0.38868424  0.69815058  0.03035484     0.16400
H336        H  0.32250896  0.63323391  0.02895946     0.16400
H337        H  0.63954079  0.63326214  0.01829946     0.14700
H338        H  0.57618203  0.69843707  0.02769094     0.14700
H339        H  0.38289374  0.38041430  0.03291914     0.14700
H340        H  0.31879781  0.44580917  0.03462646     0.14700
H341        H  0.50481168  0.51248781  0.01527948     0.28000
H342        H  0.45378628  0.56565550  0.04269554     0.28000
C343        C  0.27295324  0.55115195  0.06045691    -0.14600
C344        C  0.30384230  0.53867523  0.02681387    -0.29800
H345        H  0.28708136  0.56327413  0.09378403     0.14400
H346        H  0.29023171  0.52390995  0.99437000     0.15000
C347        C  0.68556747  0.55279271  0.04922519    -0.14600
C348        C  0.65476728  0.53797050  0.01574562    -0.29800
H349        H  0.67117061  0.56687231  0.08135233     0.14400
H350        H  0.66836869  0.52079157  0.98483661     0.15000
C351        C  0.98140032  0.52878371  0.34409172    -0.14600
C352        C  0.94576693  0.52089172  0.37461785    -0.29800
H353        H  0.01624098  0.53405094  0.35886540     0.14400
H354        H  0.91100584  0.51310257  0.36084140     0.15000
C355        C  0.98567200  0.51164603  0.75694555    -0.14600
C356        C  0.95204134  0.52490982  0.72584615    -0.29800
H357        H  0.01838649  0.49879668  0.74289474     0.14400
H358        H  0.92040151  0.54068912  0.73925579     0.15000
C359        C  0.48773168  0.33265880  0.00471773    -0.14600
C360        C  0.47561641  0.36385100  0.03823604    -0.29800
H361        H  0.50012798  0.34655764  0.97146374     0.14400
H362        H  0.46039828  0.35063220  0.07055637     0.15000
C363        C  0.48146313  0.71517938  0.04135306    -0.14600
C364        C  0.49586523  0.74641848  0.00824045    -0.29800
H365        H  0.46490086  0.72857942  0.07268238     0.14400
H366        H  0.50909168  0.73252078  0.97552265     0.15000
C367        C  0.44857764  0.04483872  0.30491415    -0.14600
C368        C  0.46152137  0.01164733  0.33652351    -0.29800
H369        H  0.43600645  0.07787631  0.31855976     0.14400
H370        H  0.47701932  0.97963614  0.32360897     0.15000
C371        C  0.46069624  0.00821888  0.68710410    -0.14600
C372        C  0.46274428  0.04427318  0.71798401    -0.29800
H373        H  0.45869829  0.97252529  0.70029743     0.14400
H374        H  0.46333415  0.07960880  0.70365351     0.15000
C375        C  0.66751643  0.01087255  0.50569959    -0.14600
C376        C  0.63470731  0.04357862  0.51504224    -0.29800
H377        H  0.65507471  0.97629972  0.49516152     0.14400
H378        H  0.64629607  0.07741240  0.52840861     0.15000
C379        C  0.25236679  0.03216932  0.50487880    -0.14600
C380        C  0.28481568  0.99819908  0.51106396    -0.29800
H381        H  0.26527675  0.06742991  0.49763737     0.14400
H382        H  0.27291112  0.96324316  0.52085900     0.15000
C383        C  0.95099958  0.72923714  0.55398363    -0.14600
C384        C  0.98394509  0.69625229  0.54618740    -0.29800
H385        H  0.91606219  0.71681422  0.56311011     0.14400
H386        H  0.01836544  0.70756537  0.53431523     0.15000
C387        C  0.93376040  0.34648378  0.55225019    -0.14600
C388        C  0.96736321  0.31421674  0.56120286    -0.29800
H389        H  0.89956815  0.33422824  0.54030964     0.14400
H390        H  0.00207595  0.32737473  0.57046723     0.15000
C391        C  0.22812115  0.27859659  0.40675656    -0.16700
C392        C  0.19621881  0.25469288  0.42052581     0.07400
C393        C  0.15753305  0.22663335  0.43262091     0.09200
C394        C  0.12659668  0.20131554  0.44606919    -0.17500
C395        C  0.15136851  0.45714173  0.22882230    -0.16700
C396        C  0.17962666  0.44620184  0.25788133     0.07400
C397        C  0.21389754  0.43403825  0.29078042     0.09200
C398        C  0.24207745  0.41528445  0.31546005    -0.17500
C399        C  0.36196961  0.20988898  0.17127662    -0.16700
C400        C  0.34687517  0.23441710  0.20144962     0.07400
C401        C  0.33787960  0.26163024  0.24100862     0.09200
C402        C  0.32981858  0.28388030  0.27550857    -0.17500
C403        C  0.21399570  0.29107041  0.66051865    -0.16700
C404        C  0.18927615  0.25874609  0.64917503     0.07400
C405        C  0.16111772  0.21947771  0.63910400     0.09200
C406        C  0.13609826  0.18805081  0.62608444    -0.17500
C407        C  0.22769576  0.39626741  0.78812683    -0.16700
C408        C  0.20592231  0.40469231  0.82283012     0.07400
C409        C  0.17828594  0.41327636  0.86219191     0.09200
C410        C  0.15298795  0.42758928  0.89212466    -0.17500
C411        C  0.35391266  0.30305210  0.74572284    -0.16700
C412        C  0.37130830  0.27432835  0.77080065     0.07400
C413        C  0.38154959  0.24022279  0.80455821     0.09200
C414        C  0.39101780  0.21225503  0.83442834    -0.17500
C415        C  0.70431094  0.74545238  0.64301637    -0.16700
C416        C  0.72950987  0.77583982  0.62812026     0.07400
C417        C  0.75937476  0.81431157  0.62001372     0.09200
C418        C  0.78517198  0.84674557  0.61181107    -0.17500
C419        C  0.81328213  0.62173939  0.86713452    -0.16700
C420        C  0.78542202  0.63358310  0.83806014     0.07400
C421        C  0.75064162  0.64100325  0.80419936     0.09200
C422        C  0.72059966  0.64994291  0.77621852    -0.17500
C423        C  0.60368545  0.76442014  0.76832022    -0.16700
C424        C  0.59447582  0.79854977  0.79072281     0.07400
C425        C  0.58747130  0.83932211  0.81691866     0.09200
C426        C  0.57612857  0.87191714  0.84051930    -0.17500
C427        C  0.78078174  0.18724382  0.62740658    -0.16700
C428        C  0.75560162  0.21830285  0.63911313     0.07400
C429        C  0.72886837  0.25827999  0.64699096     0.09200
C430        C  0.70786142  0.29267362  0.65773862    -0.17500
C431        C  0.72557319  0.39631304  0.78554595    -0.16700
C432        C  0.75126019  0.40432728  0.81800154     0.07400
C433        C  0.78103795  0.41477274  0.85580655     0.09200
C434        C  0.80652955  0.43110355  0.88514590    -0.17500
C435        C  0.58355565  0.31822605  0.75739833    -0.16700
C436        C  0.56833019  0.28816558  0.78262868     0.07400
C437        C  0.56230532  0.24996983  0.81300600     0.09200
C438        C  0.55641171  0.21730165  0.83888771    -0.17500
C439        C  0.14054194  0.85393447  0.62016845    -0.16700
C440        C  0.16855127  0.82637559  0.63449555     0.07400
C441        C  0.20149762  0.79224528  0.64612901     0.09200
C442        C  0.22936629  0.76354436  0.65833181    -0.17500
C443        C  0.15585348  0.61336314  0.87132182    -0.16700
C444        C  0.18402432  0.62520654  0.84247180     0.07400
C445        C  0.21690764  0.63528984  0.80746143     0.09200
C446        C  0.24280215  0.64803467  0.77690668    -0.17500
C447        C  0.36477509  0.75880066  0.75276580    -0.16700
C448        C  0.38076375  0.78871087  0.77776511     0.07400
C449        C  0.39060430  0.82516228  0.80924858     0.09200
C450        C  0.40020389  0.85572149  0.83654807    -0.17500
C451        C  0.23817375  0.77647918  0.40714749    -0.16700
C452        C  0.20391949  0.79772609  0.41794869     0.07400
C453        C  0.16285288  0.82277282  0.42612714     0.09200
C454        C  0.13022121  0.84609803  0.43754230    -0.17500
C455        C  0.25504144  0.64907482  0.30948004    -0.16700
C456        C  0.22439149  0.63568256  0.28377190     0.07400
C457        C  0.18666049  0.63076818  0.25245475     0.09200
C458        C  0.15471070  0.62495172  0.22554207    -0.17500
C459        C  0.37777410  0.86036985  0.17828347    -0.16700
C460        C  0.36419951  0.83474050  0.20881212     0.07400
C461        C  0.35513500  0.80634094  0.24796538     0.09200
C462        C  0.34616660  0.78246966  0.28148038    -0.17500
C463        C  0.68319083  0.76779968  0.41748712    -0.16700
C464        C  0.71371693  0.79306628  0.43211013     0.07400
C465        C  0.75289757  0.82221207  0.43951583     0.09200
C466        C  0.78612145  0.84725462  0.44698370    -0.17500
C467        C  0.70452799  0.66320816  0.29591874    -0.16700
C468        C  0.73822453  0.65470112  0.27272412     0.07400
C469        C  0.77757211  0.64925519  0.24425339     0.09200
C470        C  0.80908289  0.63886543  0.21891939    -0.17500
C471        C  0.56534884  0.87516619  0.19147268    -0.16700
C472        C  0.57767009  0.84665105  0.21964299     0.07400
C473        C  0.58465273  0.81102731  0.25263960     0.09200
C474        C  0.59247956  0.78085038  0.28077110    -0.17500
C475        C  0.70218787  0.29216079  0.40547494    -0.16700
C476        C  0.73061596  0.26439128  0.41850371     0.07400
C477        C  0.76432367  0.23097293  0.42998709     0.09200
C478        C  0.79159426  0.20240410  0.44372885    -0.17500
C479        C  0.79690013  0.45821741  0.22040093    -0.16700
C480        C  0.76572260  0.44637198  0.24585618     0.07400
C481        C  0.72857244  0.43548582  0.27585909     0.09200
C482        C  0.69864943  0.42016557  0.30102814    -0.17500
C483        C  0.58396629  0.29987812  0.28848145    -0.16700
C484        C  0.57019737  0.27380314  0.25843328     0.07400
C485        C  0.55965287  0.24177410  0.22268743     0.09200
C486        C  0.54791037  0.21449027  0.19287403    -0.17500
loop_ 
_geom_bond_atom_site_label_1 
_geom_bond_atom_site_label_2 
_geom_bond_distance 
_geom_bond_site_symmetry_2 
_ccdc_geom_bond_type 
C1            C2   1.396       .  A
C1            C6   1.396       .  A
C1          C482   1.424       .  S
C2            C3   1.395       .  A
C2            H7   1.086       .  S
C3            C4   1.396       .  A
C3          C475   1.427       .  S
C4            C5   1.397       .  A
C4            H8   1.085       .  S
C5            C6   1.397       .  A
C5          C483   1.426       .  S
C6            H9   1.086       .  S
C10          C11   1.395       .  A
C10          C15   1.395       .  A
C10         C467   1.426       .  S
C11          C12   1.397       .  A
C11          H16   1.086       .  S
C12          C13   1.397       .  A
C12         C463   1.425       .  S
C13          C14   1.397       .  A
C13          H17   1.086       .  S
C14          C15   1.396       .  A
C14         C474   1.426       .  S
C15          H18   1.086       .  S
C19          C20   1.397       .  A
C19          C24   1.396       .  A
C19         C462   1.429       .  S
C20          C21   1.398       .  A
C20          H25   1.085       .  S
C21          C22   1.396       .  A
C21         C451   1.427       .  S
C22          C23   1.396       .  A
C22          H26   1.086       .  S
C23          C24   1.396       .  A
C23         C455   1.425       .  S
C24          H27   1.086       .  S
C28          C29   1.398       .  A
C28          C33   1.397       .  A
C28         C447   1.426       .  S
C29          C30   1.397       .  A
C29          H34   1.085       .  S
C30          C31   1.396       .  A
C30         C446   1.427       .  S
C31          C32   1.395       .  A
C31          H35   1.086       .  S
C32          C33   1.395       .  A
C32         C442   1.427       .  S
C33          H36   1.086       .  S
C37          C38   1.396       .  A
C37          C42   1.397       .  A
C37         C430   1.426       .  S
C38          C39   1.397       .  A
C38          H43   1.086       .  S
C39          C40   1.397       .  A
C39         C435   1.424       .  S
C40          C41   1.395       .  A
C40          H44   1.086       .  S
C41          C42   1.395       .  A
C41         C431   1.428       .  S
C42          H45   1.086       .  S
C46          C47   1.396       .  A
C46          C51   1.397       .  A
C46         C415   1.425       .  S
C47          C48   1.395       .  A
C47          H52   1.086       .  S
C48          C49   1.395       .  A
C48         C423   1.427       .  S
C49          C50   1.397       .  A
C49          H53   1.086       .  S
C50          C51   1.397       .  A
C50         C422   1.426       .  S
C51          H54   1.086       .  S
C55          C56   1.396       .  A
C55          C60   1.397       .  A
C55         C411   1.424       .  S
C56          C57   1.396       .  A
C56          H61   1.086       .  S
C57          C58   1.396       .  A
C57         C403   1.427       .  S
C58          C59   1.397       .  A
C58          H62   1.085       .  S
C59          C60   1.395       .  A
C59         C407   1.427       .  S
C60          H63   1.086       .  S
C64          C65   1.396       .  A
C64          C69   1.394       .  A
C64         C402   1.426       .  S
C65          C66   1.397       .  A
C65          H70   1.085       .  S
C66          C67   1.396       .  A
C66         C391   1.426       .  S
C67          C68   1.396       .  A
C67          H71   1.086       .  S
C68          C69   1.396       .  A
C68         C398   1.424       .  S
C69          H72   1.086       .  S
O73         Ti91   2.182       .  S
O73         Ti90   2.183       .  S
O74          C75   1.270       .  A
O74         Ti82   2.120       .  S
C75         C478   1.420       .  S
C75         O111   1.271       .  A
O76         C109   1.285   1_565  A
O76        Ti113   2.197       .  S
O77        Ti113   2.160   1_545  S
O77         Ti91   2.155       .  S
C78          O93   1.280   1_545  A
C78         O126   1.286       .  A
C78         C375   1.514       .  S
O79          C81   1.285       .  A
O79         Ti82   2.196       .  S
C80         C427   1.418       .  S
C80         O115   1.272       .  A
C80         O101   1.272       .  A
C81          O94   1.281       .  A
C81         C388   1.517       .  S
Ti82         O95   2.166       .  S
Ti82         O98   2.159       .  S
Ti82         O84   2.152       .  S
Ti82        O101   2.120       .  S
Ti83        O128   2.147   1_455  S
Ti83        O123   2.163   1_455  S
Ti83        O102   2.169       .  S
Ti83        O100   2.201   1_455  S
Ti83         O97   2.133       .  S
Ti83        O106   2.120       .  S
O84         Ti90   2.149   1_655  S
O85        Ti127   2.144   1_545  S
O85         Ti89   2.148       .  S
C86         C439   1.420       .  S
C86         O106   1.271       .  A
C86         O110   1.271       .  A
O87        Ti121   2.181       .  S
O87        Ti127   2.181       .  S
C88         C466   1.420       .  S
C88         O114   1.270       .  A
C88         O120   1.266       .  A
Ti89        O104   2.158       .  S
Ti89         O95   2.170       .  S
Ti89        O126   2.197       .  S
Ti89        O115   2.125       .  S
Ti89        O111   2.122       .  S
Ti90         O98   2.155   1_455  S
Ti90        O118   2.133       .  S
Ti90         O94   2.167   1_455  S
Ti90        O105   2.109       .  S
Ti91         O96   2.147       .  S
Ti91        O122   2.137       .  S
Ti91        O116   2.107       .  S
Ti91        O119   2.167       .  S
O92         C108   1.269       .  A
O92        Ti127   2.134       .  S
O93        Ti127   2.162       .  S
O96        Ti113   2.148   1_545  S
O97         C112   1.274       .  A
O99         C108   1.265       .  A
O99        Ti121   2.110       .  S
O100        C103   1.287       .  A
O102       Ti113   2.164       .  S
C103        O117   1.279       .  A
C103        C383   1.515       .  S
O104       Ti127   2.156   1_545  S
O105        C107   1.267       .  A
C107        C406   1.420       .  S
C107        O122   1.271       .  A
C108        C418   1.420       .  S
C109        O119   1.281       .  A
C109        C379   1.516       .  S
O110       Ti113   2.124       .  S
C112        C454   1.420       .  S
C112        O124   1.271       .  A
Ti113       O124   2.116       .  S
O114       Ti121   2.137       .  S
O116        C125   1.265       .  A
O117       Ti121   2.160       .  S
O118        C125   1.269       .  A
O120       Ti127   2.107       .  S
Ti121       O128   2.142       .  S
Ti121       O123   2.160       .  S
C125        C394   1.420       .  S
O129       Ti147   2.183       .  S
O129       Ti146   2.183       .  S
O130        C131   1.265       .  A
O130       Ti138   2.117       .  S
C131        C486   1.421       .  S
C131        O167   1.265       .  A
O132        C165   1.278   1_556  A
O132       Ti169   2.161       .  S
O133       Ti169   2.163   1_554  S
O133       Ti147   2.158       .  S
C134        O149   1.279   1_554  A
C134        O182   1.283       .  A
C134        C359   1.511       .  S
O135        C137   1.279       .  A
O135       Ti138   2.163       .  S
C136        C399   1.417       .  S
C136        O171   1.273       .  A
C136        O157   1.272       .  A
C137        O150   1.284       .  A
C137        C367   1.515       .  S
Ti138       O151   2.168       .  S
Ti138       O154   2.158       .  S
Ti138       O140   2.153       .  S
Ti138       O157   2.119       .  S
Ti139       O184   2.141   1_565  S
Ti139       O179   2.162   1_565  S
Ti139       O158   2.177       .  S
Ti139       O156   2.191   1_565  S
Ti139       O153   2.135       .  S
Ti139       O162   2.116       .  S
O140       Ti146   2.160   1_545  S
O141       Ti183   2.140   1_554  S
O141       Ti145   2.146       .  S
C142        C450   1.421       .  S
C142        O162   1.266       .  A
C142        O166   1.266       .  A
O143       Ti177   2.174       .  S
O143       Ti183   2.172       .  S
C144        C438   1.419       .  S
C144        O170   1.269       .  A
C144        O176   1.266       .  A
Ti145       O160   2.153       .  S
Ti145       O151   2.178       .  S
Ti145       O182   2.188       .  S
Ti145       O171   2.127       .  S
Ti145       O167   2.114       .  S
Ti146       O154   2.154   1_565  S
Ti146       O174   2.119       .  S
Ti146       O150   2.195   1_565  S
Ti146       O161   2.118       .  S
Ti147       O152   2.157       .  S
Ti147       O178   2.126       .  S
Ti147       O172   2.117       .  S
Ti147       O175   2.192       .  S
O148        C164   1.268       .  A
O148       Ti183   2.127       .  S
O149       Ti183   2.163       .  S
O152       Ti169   2.149   1_554  S
O153        C168   1.274       .  A
O155        C164   1.266       .  A
O155       Ti177   2.111       .  S
O156        C159   1.284       .  A
O158       Ti169   2.164       .  S
C159        O173   1.279       .  A
C159        C372   1.510       .  S
O160       Ti183   2.157   1_554  S
O161        C163   1.270       .  A
C163        C459   1.421       .  S
C163        O178   1.272       .  A
C164        C414   1.420       .  S
C165        O175   1.283       .  A
C165        C364   1.513       .  S
O166       Ti169   2.120       .  S
C168        C426   1.420       .  S
C168        O180   1.271       .  A
Ti169       O180   2.116       .  S
O170       Ti177   2.131       .  S
O172        C181   1.269       .  A
O173       Ti177   2.159       .  S
O174        C181   1.269       .  A
O176       Ti183   2.108       .  S
Ti177       O184   2.139       .  S
Ti177       O179   2.160       .  S
C181        C471   1.418       .  S
O185       Ti203   2.180       .  S
O185       Ti202   2.183       .  S
O186        C187   1.264       .  A
O186       Ti194   2.110       .  S
C187        C479   1.417       .  S
C187        O223   1.265       .  A
O188        C221   1.280   1_455  A
O188       Ti225   2.169       .  S
O189       Ti225   2.159   1_655  S
O189       Ti203   2.155       .  S
C190        O205   1.279   1_655  A
C190        O238   1.285       .  A
C190        C351   1.512       .  S
O191        C193   1.279       .  A
O191       Ti194   2.165       .  S
C192        C470   1.418       .  S
C192        O227   1.274       .  A
C192        O213   1.273       .  A
C193        O206   1.283       .  A
C193        C347   1.513       .  S
Ti194       O207   2.169       .  S
Ti194       O210   2.158       .  S
Ti194       O196   2.150       .  S
Ti194       O213   2.120       .  S
Ti195       O240   2.151   1_556  S
Ti195       O235   2.152   1_556  S
Ti195       O214   2.179       .  S
Ti195       O212   2.187   1_556  S
Ti195       O209   2.125       .  S
Ti195       O218   2.113       .  S
O196       Ti202   2.162   1_554  S
O197       Ti239   2.139   1_655  S
O197       Ti201   2.138       .  S
C198        C443   1.421       .  S
C198        O218   1.266       .  A
C198        O222   1.267       .  A
O199       Ti233   2.173       .  S
O199       Ti239   2.173       .  S
C200        C395   1.418       .  S
C200        O226   1.266       .  A
C200        O232   1.265       .  A
Ti201       O216   2.164       .  S
Ti201       O207   2.180       .  S
Ti201       O238   2.195       .  S
Ti201       O227   2.131       .  S
Ti201       O223   2.115       .  S
Ti202       O210   2.150   1_556  S
Ti202       O230   2.125       .  S
Ti202       O206   2.191   1_556  S
Ti202       O217   2.116       .  S
Ti203       O208   2.160       .  S
Ti203       O234   2.117       .  S
Ti203       O228   2.119       .  S
Ti203       O231   2.187       .  S
O204        C220   1.270       .  A
O204       Ti239   2.132       .  S
O205       Ti239   2.160       .  S
O208       Ti225   2.154   1_655  S
O209        C224   1.272       .  A
O211        C220   1.268       .  A
O211       Ti233   2.113       .  S
O212        C215   1.283       .  A
O214       Ti225   2.172       .  S
C215        O229   1.280       .  A
C215        C343   1.512       .  S
O216       Ti239   2.160   1_655  S
O217        C219   1.268       .  A
C219        C419   1.418       .  S
C219        O234   1.268       .  A
C220        C458   1.421       .  S
C221        O231   1.282       .  A
C221        C355   1.514       .  S
O222       Ti225   2.120       .  S
C224        C410   1.419       .  S
C224        O236   1.272       .  A
Ti225       O236   2.121       .  S
O226       Ti233   2.122       .  S
O228        C237   1.270       .  A
O229       Ti233   2.165       .  S
O230        C237   1.271       .  A
O232       Ti239   2.110       .  S
Ti233       O240   2.143       .  S
Ti233       O235   2.157       .  S
C237        C434   1.420       .  S
N241        C246   1.365       .  A
N241        C245   1.366       .  A
N241        H273   1.033       .  S
N242        C249   1.362       .  A
N242        C250   1.362       .  A
N243        C248   1.364       .  A
N243        C247   1.366       .  A
N243        H274   1.031       .  S
N244        C251   1.364       .  A
N244        C252   1.363       .  A
C245        C253   1.387       .  A
C245        C261   1.438       .  A
C246        C262   1.439       .  A
C246        C254   1.388       .  A
C247        C255   1.387       .  A
C247        C264   1.438       .  A
C248        C263   1.441       .  A
C248        C256   1.389       .  A
C249        C261   1.434       .  A
C249        C257   1.387       .  A
C250        C264   1.434       .  A
C250        C258   1.386       .  A
C251        C259   1.386       .  A
C251        C262   1.437       .  A
C252        C260   1.388       .  A
C252        C263   1.438       .  A
C253        C254   1.380       .  A
C253        H265   1.082       .  S
C254        H266   1.082       .  S
C255        C256   1.382       .  A
C255        H267   1.082       .  S
C256        H268   1.082       .  S
C257        C258   1.376       .  A
C257        H269   1.081       .  S
C258        H270   1.082       .  S
C259        C260   1.380       .  A
C259        H271   1.082       .  S
C260        H272   1.082       .  S
C261        C352   1.526       .  S
C262        C387   1.528       .  S
C263        C356   1.526       .  S
C264        C384   1.527       .  S
N275        C280   1.364       .  A
N275        C279   1.365       .  A
N275        H307   1.033       .  S
N276        C283   1.362       .  A
N276        C284   1.361       .  A
N277        C282   1.364       .  A
N277        C281   1.365       .  A
N277        H308   1.037       .  S
N278        C285   1.363       .  A
N278        C286   1.363       .  A
C279        C287   1.387       .  A
C279        C295   1.439       .  A
C280        C296   1.441       .  A
C280        C288   1.389       .  A
C281        C289   1.387   1_545  A
C281        C298   1.435       .  A
C282        C297   1.437       .  A
C282        C290   1.389   1_545  A
C283        C295   1.434       .  A
C283        C291   1.388       .  A
C284        C298   1.431       .  A
C284        C292   1.386       .  A
C285        C293   1.388       .  A
C285        C296   1.439       .  A
C286        C294   1.386       .  A
C286        C297   1.436       .  A
C287        C288   1.382       .  A
C287        H299   1.082       .  S
C288        H300   1.082       .  S
C289        C290   1.380       .  A
C289        H301   1.082       .  S
C290        H302   1.082       .  S
C291        C292   1.377       .  A
C291        H303   1.082       .  S
C292        H304   1.082       .  S
C293        C294   1.380       .  A
C293        H305   1.082       .  S
C294        H306   1.082       .  S
C295        C376   1.525       .  S
C296        C368   1.526       .  S
C297        C380   1.526   1_545  S
C298        C371   1.521       .  S
N309        C314   1.366       .  A
N309        C313   1.364       .  A
N309        H341   1.035       .  S
N310        C317   1.363       .  A
N310        C318   1.363       .  A
N311        C316   1.366       .  A
N311        C315   1.364       .  A
N311        H342   1.034       .  S
N312        C319   1.361       .  A
N312        C320   1.361       .  A
C313        C321   1.388       .  A
C313        C329   1.438       .  A
C314        C330   1.437       .  A
C314        C322   1.387       .  A
C315        C323   1.388       .  A
C315        C332   1.438       .  A
C316        C331   1.438       .  A
C316        C324   1.387       .  A
C317        C329   1.436       .  A
C317        C325   1.386       .  A
C318        C332   1.437       .  A
C318        C326   1.387       .  A
C319        C327   1.387       .  A
C319        C330   1.432       .  A
C320        C328   1.387       .  A
C320        C331   1.432       .  A
C321        C322   1.380       .  A
C321        H333   1.082       .  S
C322        H334   1.082       .  S
C323        C324   1.380       .  A
C323        H335   1.082       .  S
C324        H336   1.082       .  S
C325        C326   1.378       .  A
C325        H337   1.082       .  S
C326        H338   1.081       .  S
C327        C328   1.375       .  A
C327        H339   1.082       .  S
C328        H340   1.082       .  S
C329        C348   1.526       .  S
C330        C360   1.523       .  S
C331        C344   1.523       .  S
C332        C363   1.526       .  S
C343        C344   1.358       .  D
C343        H345   1.086       .  S
C344        H346   1.086   1_554  S
C347        C348   1.359       .  D
C347        H349   1.086       .  S
C348        H350   1.086   1_554  S
C351        C352   1.359       .  D
C351        H353   1.087   1_655  S
C352        H354   1.086       .  S
C355        C356   1.360       .  D
C355        H357   1.086   1_655  S
C356        H358   1.086       .  S
C359        C360   1.357       .  D
C359        H361   1.087   1_554  S
C360        H362   1.086       .  S
C363        C364   1.359       .  D
C363        H365   1.086       .  S
C364        H366   1.087   1_554  S
C367        C368   1.359       .  D
C367        H369   1.087       .  S
C368        H370   1.086   1_545  S
C371        C372   1.357       .  D
C371        H373   1.086   1_545  S
C372        H374   1.087       .  S
C375        C376   1.358       .  D
C375        H377   1.087   1_545  S
C376        H378   1.086       .  S
C379        C380   1.359   1_545  D
C379        H381   1.087       .  S
C380        H382   1.086       .  S
C383        C384   1.358       .  D
C383        H385   1.087       .  S
C384        H386   1.086   1_655  S
C387        C388   1.360       .  D
C387        H389   1.086       .  S
C388        H390   1.087   1_655  S
C391        C392   1.198       .  T
C392        C393   1.400       .  S
C393        C394   1.198       .  T
C395        C396   1.197       .  T
C396        C397   1.398       .  S
C397        C398   1.197       .  T
C399        C400   1.196       .  T
C400        C401   1.398       .  S
C401        C402   1.198       .  T
C403        C404   1.198       .  T
C404        C405   1.400       .  S
C405        C406   1.198       .  T
C407        C408   1.198       .  T
C408        C409   1.400       .  S
C409        C410   1.197       .  T
C411        C412   1.197       .  T
C412        C413   1.400       .  S
C413        C414   1.198       .  T
C415        C416   1.198       .  T
C416        C417   1.401       .  S
C417        C418   1.199       .  T
C419        C420   1.197       .  T
C420        C421   1.399       .  S
C421        C422   1.198       .  T
C423        C424   1.199       .  T
C424        C425   1.401       .  S
C425        C426   1.198       .  T
C427        C428   1.197       .  T
C428        C429   1.399       .  S
C429        C430   1.198       .  T
C431        C432   1.199       .  T
C432        C433   1.400       .  S
C433        C434   1.198       .  T
C435        C436   1.197       .  T
C436        C437   1.400       .  S
C437        C438   1.198       .  T
C439        C440   1.198       .  T
C440        C441   1.400       .  S
C441        C442   1.198       .  T
C443        C444   1.199       .  T
C444        C445   1.401       .  S
C445        C446   1.199       .  T
C447        C448   1.198       .  T
C448        C449   1.401       .  S
C449        C450   1.199       .  T
C451        C452   1.199       .  T
C452        C453   1.401       .  S
C453        C454   1.198       .  T
C455        C456   1.198       .  T
C456        C457   1.402       .  S
C457        C458   1.199       .  T
C459        C460   1.199       .  T
C460        C461   1.402       .  S
C461        C462   1.199       .  T
C463        C464   1.198       .  T
C464        C465   1.400       .  S
C465        C466   1.199       .  T
C467        C468   1.198       .  T
C468        C469   1.400       .  S
C469        C470   1.197       .  T
C471        C472   1.197       .  T
C472        C473   1.399       .  S
C473        C474   1.198       .  T
C475        C476   1.198       .  T
C476        C477   1.400       .  S
C477        C478   1.198       .  T
C479        C480   1.196       .  T
C480        C481   1.398       .  S
C481        C482   1.196       .  T
C483        C484   1.198       .  T
C484        C485   1.400       .  S
C485        C486   1.198       .  T
