geometry optimzed in LAMMPS
_audit_creation_date              2020-12-01 
_audit_creation_method            'lammps2cif' 
_symmetry_space_group_name_H-M    'P1' 
_symmetry_Int_Tables_number       1 
_symmetry_cell_setting            triclinic 
loop_ 
_symmetry_equiv_pos_as_xyz 
  x,y,z 
_cell_length_a                    39.64007918 
_cell_length_b                    40.15886092966704 
_cell_length_c                    46.17772457648419 
_cell_angle_alpha                 90.39528718700815 
_cell_angle_beta                  89.52542743255114 
_cell_angle_gamma                 120.54081786498361 
loop_ 
_atom_site_label 
_atom_site_type_symbol 
_atom_site_fract_x 
_atom_site_fract_y 
_atom_site_fract_z 
_atom_site_charge 
In1        In  0.37941858  0.38325183  0.32888594     1.36900
C2          C  0.41879286  0.42686505  0.37432959     0.78300
O3          O  0.38592008  0.41767660  0.28908052    -0.60100
O4          O  0.43288870  0.40985032  0.30068857    -0.51100
C5          C  0.37150877  0.31434210  0.31782924     0.71000
O6          O  0.40150744  0.34182148  0.32932085    -0.45900
C7          C  0.30909459  0.37395259  0.33906816     0.75700
O8          O  0.40421159  0.39068509  0.37363599    -0.57800
O9          O  0.32651435  0.38482231  0.31505032    -0.47900
O10         O  0.41241986  0.44019094  0.35181688    -0.54200
C11         C  0.42019481  0.42514564  0.28353099     0.85900
O12         O  0.34504048  0.32186874  0.31247244    -0.56100
O13         O  0.32753167  0.36651998  0.35767534    -0.59400
In14       In  0.65596038  0.02168901  0.00012091     1.36900
C15         C  0.60982424  0.02103803  0.04201135     0.78300
O16         O  0.60221664  0.02951729  0.47935360    -0.60100
O17         O  0.61136610  0.98831616  0.45759150    -0.51100
C18         C  0.70592159  0.06805295  0.48891156     0.71000
O19         O  0.70247139  0.08353866  0.00699580    -0.45900
C20         C  0.65677899  0.95829221  0.01550834     0.75700
O21         O  0.64666838  0.04069608  0.04398512    -0.57800
O22         O  0.62278175  0.94756003  0.49239286    -0.47900
O23         O  0.59717997  0.00097359  0.01938270    -0.54200
C24         C  0.59706308  0.01007458  0.45664929     0.85900
O25         O  0.69692273  0.03375278  0.48371972    -0.56100
O26         O  0.67939664  0.99122047  0.02621699    -0.59400
In27       In  0.00510885  0.38387583  0.41198898     1.36900
C28         C  0.00917815  0.42561812  0.36644387     0.78300
O29         O  0.98040390  0.41649991  0.43481276    -0.60100
O30         O  0.02959879  0.41782169  0.45315585    -0.51100
C31         C  0.94590713  0.31305853  0.42331648     0.71000
O32         O  0.94874546  0.33081344  0.40028143    -0.45900
C33         C  0.06310256  0.37162441  0.39883264     0.75700
O34         O  0.97751851  0.39733046  0.37537606    -0.57800
O35         O  0.03076412  0.35477093  0.38587055    -0.47900
O36         O  0.03870538  0.43248432  0.38110490    -0.54200
C37         C  0.00570808  0.42969514  0.45456649     0.85900
O38         O  0.97390226  0.33187796  0.44058952    -0.56100
O39         O  0.06509551  0.39365281  0.41918762    -0.59400
In40       In  0.39535254  0.01975746  0.24788406     1.36900
C41         C  0.43396261  0.01838129  0.20094997     0.78300
O42         O  0.45406859  0.04144052  0.26852796    -0.60100
O43         O  0.40468701  0.99204720  0.28635435    -0.51100
C44         C  0.38267747  0.07755602  0.26127299     0.71000
O45         O  0.38688540  0.05729695  0.27993801    -0.45900
C46         C  0.32337353  0.96048267  0.24030928     0.75700
O47         O  0.40921265  0.98825696  0.21402167    -0.57800
O48         O  0.34279526  0.96483686  0.26288076    -0.47900
O49         O  0.43887823  0.04932379  0.21212227    -0.54200
C50         C  0.44104505  0.01555349  0.28767842     0.85900
O51         O  0.38571781  0.06849923  0.23568972    -0.56100
O52         O  0.34047300  0.98758398  0.22231265    -0.59400
In53       In  0.65197827  0.65123074  0.09049808     1.36900
C54         C  0.60576817  0.60618150  0.13279369     0.78300
O55         O  0.64524241  0.61444030  0.05170568    -0.60100
O56         O  0.60012549  0.62642992  0.06128305    -0.51100
C57         C  0.66115711  0.71984982  0.07667918     0.71000
O58         O  0.63762257  0.69816933  0.09589390    -0.45900
C59         C  0.72118722  0.66163511  0.10584109     0.75700
O60         O  0.61222146  0.59314446  0.10992041    -0.57800
O61         O  0.70349105  0.64353625  0.08333639    -0.47900
O62         O  0.62369674  0.64251611  0.13433396    -0.54200
C63         C  0.61183114  0.60868353  0.04525924     0.85900
O64         O  0.68063876  0.70648392  0.06499075    -0.56100
O65         O  0.70384029  0.67514172  0.12037417    -0.59400
In66       In  0.02415066  0.64549777  0.16473633     1.36900
C67         C  0.02094394  0.60595626  0.11765630     0.78300
O68         O  0.05245098  0.61710392  0.18798397    -0.60100
O69         O  0.99863945  0.60956744  0.20404835    -0.51100
C70         C  0.08380028  0.71443612  0.17944022     0.71000
O71         O  0.08527025  0.69555141  0.15806068    -0.45900
C72         C  0.96454473  0.65727042  0.15624508     0.75700
O73         O  0.04237694  0.64209912  0.11952365    -0.57800
O74         O  0.96521077  0.63680117  0.17644689    -0.47900
O75         O  0.00084836  0.59001097  0.14001058    -0.54200
C76         C  0.02583233  0.60234519  0.20702321     0.85900
O77         O  0.05220542  0.69727114  0.19345827    -0.56100
O78         O  0.99446878  0.67147741  0.14019433    -0.59400
C79         C  0.87173217  0.66293173  0.16489914    -0.11200
C80         C  0.86583172  0.66965311  0.13620526     0.11400
C81         C  0.89424878  0.67631665  0.11480958    -0.03000
C82         C  0.92641271  0.67266598  0.12251728    -0.05700
C83         C  0.93115840  0.66324616  0.15088464    -0.16500
C84         C  0.90415913  0.65976754  0.17282041     0.02400
C85         C  0.82841960  0.66731525  0.12894632     0.12400
C86         C  0.89049254  0.68720025  0.08405381     0.63000
H87         H  0.94774350  0.67634405  0.10613636     0.12400
C88         C  0.90937512  0.65323425  0.20443949     0.55100
H89         H  0.84984373  0.65891750  0.18090909     0.08200
C90         C  0.79454877  0.63142571  0.12250520    -0.05600
C91         C  0.76025699  0.63111954  0.11473232    -0.06300
C92         C  0.75843611  0.66506825  0.11471060    -0.15900
C93         C  0.79184176  0.70078366  0.12236258    -0.01500
C94         C  0.82669783  0.70133384  0.12907711    -0.09100
C95         C  0.79445092  0.59359557  0.12448240     0.65200
H96         H  0.73412813  0.60408425  0.10921894     0.10700
C97         C  0.79078200  0.73802143  0.12317401     0.63600
H98         H  0.85285313  0.72824734  0.13475374     0.08000
F99         F  0.90356381  0.61652533  0.20801978    -0.19400
F100        F  0.88292917  0.65655882  0.22223136    -0.15700
F101        F  0.94668776  0.68047327  0.21339425    -0.19100
F102        F  0.89062244  0.72169060  0.08437926    -0.22500
F103        F  0.85592266  0.65878231  0.07189182    -0.24000
F104        F  0.92112960  0.69188614  0.06654834    -0.18000
F105        F  0.82770930  0.77002167  0.12713744    -0.20500
F106        F  0.76710221  0.73666947  0.14583687    -0.21600
F107        F  0.77614754  0.74277436  0.09742056    -0.18800
F108        F  0.75883493  0.56227182  0.11627579    -0.18900
F109        F  0.80153247  0.58774935  0.15271905    -0.22700
F110        F  0.82313969  0.59459804  0.10667258    -0.24400
C111        C  0.14494107  0.81495680  0.21251104    -0.11200
C112        C  0.18231396  0.82478700  0.20267462     0.11400
C113        C  0.18737214  0.79925231  0.18439827    -0.03000
C114        C  0.15420908  0.76386327  0.17682923    -0.05700
C115        C  0.11667540  0.75321674  0.18738501    -0.16500
C116        C  0.11168197  0.77964112  0.20497248     0.02400
C117        C  0.21606691  0.86075323  0.21376840     0.12400
C118        C  0.22775116  0.80891837  0.17367844     0.63000
H119        H  0.15762927  0.74365234  0.16327380     0.12400
C120        C  0.07175751  0.77113146  0.21580366     0.55100
H121        H  0.14224324  0.83503513  0.22676104     0.08200
C122        C  0.22865378  0.89706901  0.20100208    -0.05600
C123        C  0.26287001  0.92926144  0.21151960    -0.06300
C124        C  0.28454463  0.92611579  0.23422624    -0.15900
C125        C  0.27020185  0.88989209  0.24824890    -0.01500
C126        C  0.23578446  0.85783493  0.23772404    -0.09100
C127        C  0.20642270  0.90165080  0.17616661     0.65200
H128        H  0.27352353  0.95715323  0.20146832     0.10700
C129        C  0.29124803  0.88426415  0.27345068     0.63600
H130        H  0.22445629  0.82966000  0.24750372     0.08000
F131        F  0.04590228  0.76017731  0.19290139    -0.19400
F132        F  0.07349932  0.80317984  0.22871520    -0.15700
F133        F  0.05759407  0.74190792  0.23616292    -0.19100
F134        F  0.25057372  0.81095296  0.19685250    -0.22500
F135        F  0.24591573  0.84407543  0.15954302    -0.24000
F136        F  0.22576057  0.78128250  0.15455754    -0.18000
F137        F  0.29302343  0.90724024  0.29652553    -0.20500
F138        F  0.32870948  0.89384110  0.26511364    -0.21600
F139        F  0.27218076  0.84632035  0.28293759    -0.18800
F140        F  0.22398846  0.93961033  0.16689373    -0.18900
F141        F  0.16867631  0.89026764  0.18494698    -0.22700
F142        F  0.20490484  0.87913631  0.15289154    -0.20200
C143        C  0.01167065  0.55338043  0.27969947    -0.11200
C144        C  0.02311242  0.52651210  0.27296718     0.11400
C145        C  0.03681253  0.52531957  0.24481131    -0.03000
C146        C  0.03815334  0.55130635  0.22394707    -0.05700
C147        C  0.02591793  0.57775064  0.23053437    -0.16500
C148        C  0.01348427  0.57968477  0.25904947     0.02400
C149        C  0.02091294  0.50046950  0.29627792     0.12400
C150        C  0.04929553  0.49637401  0.23680218     0.63000
H151        H  0.04767542  0.55038923  0.20206818     0.12400
C152        C  0.00362269  0.61023008  0.26806891     0.55100
H153        H  0.00129851  0.55354459  0.30142939     0.08200
C154        C  0.04919881  0.51345153  0.31846942    -0.05600
C155        C  0.04441042  0.48764209  0.34058299    -0.06300
C156        C  0.01201765  0.44981994  0.34146192    -0.15900
C157        C  0.98391613  0.43669582  0.31889122    -0.01500
C158        C  0.98895159  0.46259701  0.29665447    -0.09100
C159        C  0.08349420  0.55477174  0.31943241     0.65200
H160        H  0.06547607  0.49743642  0.35802380     0.10700
C161        C  0.94908507  0.39568541  0.31784482     0.63600
H162        H  0.96756073  0.45374093  0.27949640     0.08000
F163        F  0.99930411  0.61113807  0.29779777    -0.19400
F164        F  0.96889384  0.60258450  0.25544865    -0.15700
F165        F  0.03343743  0.64638702  0.25955989    -0.19100
F166        F  0.01700168  0.45941506  0.23703456    -0.22500
F167        F  0.07646798  0.49841629  0.25641616    -0.24000
F168        F  0.06614676  0.50331640  0.20948426    -0.18000
F169        F  0.92351544  0.39008295  0.34035646    -0.20500
F170        F  0.96181949  0.36947408  0.32000294    -0.21600
F171        F  0.92855408  0.38815779  0.29220226    -0.18800
F172        F  0.11091499  0.55932134  0.33985338    -0.18900
F173        F  0.07005156  0.57952288  0.32654443    -0.22700
F174        F  0.10218805  0.56521737  0.29281571    -0.24400
C175        C  0.02468381  0.57484570  0.04028739    -0.11200
C176        C  0.01904384  0.53801573  0.04510776     0.11400
C177        C  0.01453733  0.52361735  0.07357291    -0.03000
C178        C  0.01440976  0.54653036  0.09658926    -0.05700
C179        C  0.02018699  0.58361556  0.09192354    -0.16500
C180        C  0.02539561  0.59819765  0.06329853     0.02400
C181        C  0.01965832  0.51572824  0.01987318     0.12400
C182        C  0.01119690  0.48485390  0.07955469     0.63000
H183        H  0.01100861  0.53607985  0.11860948     0.12400
C184        C  0.03091604  0.63770345  0.05680402     0.55100
H185        H  0.02883905  0.58520598  0.01819182     0.08200
C186        C  0.98549882  0.49138281  0.00390900    -0.05600
C187        C  0.97237492  0.45826462  0.48186370    -0.06300
C188        C  0.00685550  0.45703105  0.47705726    -0.15900
C189        C  0.05835493  0.49833027  0.98867061    -0.01500
C190        C  0.05562175  0.51989902  0.01161599    -0.09100
C191        C  0.93284024  0.48404519  0.50657958     0.65200
H192        H  0.94647528  0.43892509  0.46958560     0.10700
C193        C  0.09853481  0.50637172  0.97893783     0.63600
H194        H  0.08158997  0.54011277  0.02354023     0.08000
F195        F  0.03043584  0.64365072  0.02734523    -0.19400
F196        F  0.06660497  0.66632088  0.06736944    -0.15700
F197        F  0.00102680  0.64101702  0.06952781    -0.19100
F198        F  0.04515131  0.48597233  0.07066825    -0.22500
F199        F  0.97984927  0.45569509  0.06470649    -0.24000
F200        F  0.00572062  0.47576582  0.10872961    -0.18000
F201        F  0.10211860  0.51076056  0.94916193    -0.20500
F202        F  0.07585630  0.44933407  0.49740532    -0.21600
F203        F  0.12826685  0.54003671  0.99118016    -0.18800
F204        F  0.90278321  0.45642338  0.48970911    -0.18900
F205        F  0.93869857  0.51986438  0.49903939    -0.22700
F206        F  0.93477011  0.47866091  0.03781880    -0.24400
C207        C  0.52622107  0.02231621  0.33050023    -0.11200
C208        C  0.50860517  0.01017415  0.35780445     0.11400
C209        C  0.46886026  0.99909463  0.36185549    -0.03000
C210        C  0.44783872  0.00055918  0.33808188    -0.05700
C211        C  0.46551590  0.01348870  0.31080702    -0.16500
C212        C  0.50522038  0.02390311  0.30664628     0.02400
C213        C  0.53280667  0.01037542  0.38210187     0.12400
C214        C  0.44901109  0.98661389  0.39130627     0.63000
H215        H  0.41754155  0.99267594  0.34087127     0.12400
C216        C  0.52524913  0.03581231  0.27725100     0.55100
H217        H  0.55677101  0.03090262  0.32815539     0.08200
C218        C  0.53890276  0.97918319  0.38714682    -0.05600
C219        C  0.55975027  0.98021701  0.41191964    -0.06300
C220        C  0.57565690  0.01191968  0.43106785    -0.15900
C221        C  0.57163102  0.04438316  0.42479181    -0.01500
C222        C  0.54974421  0.04266640  0.40043126    -0.09100
C223        C  0.52410275  0.94541607  0.36613175     0.65200
H224        H  0.56384155  0.95610886  0.41646740     0.10700
C225        C  0.59118527  0.08123063  0.44284288     0.63600
H226        H  0.54536065  0.06650989  0.39547415     0.08000
F227        F  0.56143946  0.03837589  0.27728999    -0.19400
F228        F  0.53095900  0.07159603  0.26977306    -0.15700
F229        F  0.50243024  0.00881894  0.25650294    -0.19100
F230        F  0.46659206  0.01719600  0.41056460    -0.22500
F231        F  0.45216160  0.95614050  0.40174724    -0.24000
F232        F  0.40958842  0.97474817  0.39000042    -0.18000
F233        F  0.63086356  0.09461545  0.44500017    -0.20500
F234        F  0.57455366  0.07418863  0.47019360    -0.21600
F235        F  0.58705347  0.11032835  0.43057986    -0.18800
F236        F  0.53158446  0.91726267  0.37582185    -0.18900
F237        F  0.54259296  0.95847140  0.33964971    -0.22700
F238        F  0.48413173  0.92850499  0.36243566    -0.24400
C239        C  0.47056630  0.98725963  0.13518719    -0.11200
C240        C  0.50653827  0.02105808  0.13027510     0.11400
C241        C  0.51670741  0.05483392  0.14640029    -0.03000
C242        C  0.49189811  0.05255652  0.16911338    -0.05700
C243        C  0.45676151  0.01811590  0.17537572    -0.16500
C244        C  0.44494195  0.98517008  0.15730715     0.02400
C245        C  0.53303598  0.02031839  0.10792343     0.12400
C246        C  0.55313580  0.09322045  0.13916011     0.63000
H247        H  0.50009852  0.07788265  0.18238154     0.12400
C248        C  0.40551976  0.94821315  0.16072023     0.55100
H249        H  0.46307123  0.96222516  0.12172457     0.08200
C250        C  0.56132117  0.01000791  0.11465483    -0.05600
C251        C  0.58692759  0.01188668  0.09264767    -0.06300
C252        C  0.58329295  0.02148358  0.06419822    -0.15900
C253        C  0.55390056  0.03023953  0.05722261    -0.01500
C254        C  0.52936785  0.02986900  0.07948451    -0.09100
C255        C  0.56348164  0.99593747  0.14467078     0.65200
H256        H  0.60921801  0.00467121  0.09724509     0.10700
C257        C  0.54911769  0.04084781  0.02660171     0.63600
H258        H  0.50697714  0.03694909  0.07493073     0.08000
F259        F  0.39807278  0.92270085  0.13801495    -0.19400
F260        F  0.37582155  0.95677072  0.16125849    -0.15700
F261        F  0.40479083  0.92975235  0.18607504    -0.19100
F262        F  0.58619810  0.09008172  0.14074350    -0.22500
F263        F  0.55796737  0.12233124  0.15793678    -0.24000
F264        F  0.55005809  0.10401528  0.11138949    -0.18000
F265        F  0.53763261  0.00952992  0.00831992    -0.20500
F266        F  0.58425668  0.07153925  0.01687064    -0.21600
F267        F  0.52106651  0.05159113  0.02520453    -0.18800
F268        F  0.59262398  0.98668955  0.14637616    -0.18900
F269        F  0.52818496  0.96315572  0.15131724    -0.22700
F270        F  0.57111970  0.02412661  0.16514348    -0.24400
C271        C  0.62786951  0.85405039  0.03279039    -0.11200
C272        C  0.66233108  0.86000102  0.04575365     0.11400
C273        C  0.69494078  0.89786575  0.04817353    -0.03000
C274        C  0.69141845  0.92887987  0.03817749    -0.05700
C275        C  0.65696868  0.92320429  0.02515435    -0.16500
C276        C  0.62430776  0.88500512  0.02247922     0.02400
C277        C  0.66382576  0.82552940  0.05507001     0.12400
C278        C  0.73361098  0.90547914  0.06054955     0.63000
H279        H  0.71620593  0.95803867  0.03985250     0.12400
C280        C  0.57304827  0.86592833  0.50215518     0.55100
H281        H  0.58934725  0.81200043  0.52175868     0.08200
C282        C  0.64604695  0.80569614  0.08104369    -0.05600
C283        C  0.64717752  0.77213568  0.08757515    -0.06300
C284        C  0.66453972  0.75732954  0.06871259    -0.15900
C285        C  0.68221833  0.77739778  0.04253926    -0.01500
C286        C  0.68145943  0.81125412  0.03632007    -0.09100
C287        C  0.62531587  0.81947874  0.10145155     0.65200
H288        H  0.63363474  0.75669546  0.10739104     0.10700
C289        C  0.70065565  0.76292173  0.02061651     0.63600
H290        H  0.69401000  0.82668974  0.01630859     0.08000
F291        F  0.55893134  0.88653294  0.51682381    -0.19400
F292        F  0.54410012  0.82728968  0.50284317    -0.15700
F293        F  0.57991117  0.87732258  0.47348257    -0.19100
F294        F  0.74978311  0.88964610  0.04248039    -0.22500
F295        F  0.72776286  0.88913511  0.08771321    -0.24000
F296        F  0.76033391  0.94466366  0.06316393    -0.18000
F297        F  0.67311919  0.72610224  0.01149159    -0.20500
F298        F  0.73207521  0.76245362  0.03296903    -0.21600
F299        F  0.71442342  0.78629410  0.99635635    -0.18800
F300        F  0.61194654  0.79722299  0.12628626    -0.18900
F301        F  0.59336588  0.81728701  0.08776823    -0.22700
F302        F  0.65066630  0.85733533  0.10966880    -0.24400
C303        C  0.84719477  0.21850015  0.42284989    -0.11200
C304        C  0.84730221  0.20481083  0.45061946     0.11400
C305        C  0.88139257  0.22403978  0.46779309    -0.03000
C306        C  0.91364787  0.25787115  0.45694930    -0.05700
C307        C  0.91235208  0.27403201  0.43034760    -0.16500
C308        C  0.87883343  0.25327735  0.41239087     0.02400
C309        C  0.81111540  0.17010383  0.46065861     0.12400
C310        C  0.88555736  0.20973813  0.49720439     0.63000
H311        H  0.93981366  0.27262023  0.47006403     0.12400
C312        C  0.87554091  0.26739901  0.38264908     0.55100
H313        H  0.82120034  0.20213177  0.40979842     0.08200
C314        C  0.77828990  0.17218559  0.47027135    -0.05600
C315        C  0.74484025  0.13811857  0.47948574    -0.06300
C316        C  0.74332720  0.10235582  0.47959225    -0.15900
C317        C  0.77674597  0.10058688  0.47039132    -0.01500
C318        C  0.81003276  0.13472915  0.46077850    -0.09100
C319        C  0.77893884  0.21037606  0.47134198     0.65200
H320        H  0.75446093  0.15095307  0.01495079     0.10700
C321        C  0.77799483  0.06340130  0.47107100     0.63600
H322        H  0.83582296  0.13429997  0.45337277     0.08000
F323        F  0.89525527  0.34565881  0.92217400    -0.19400
F324        F  0.84101349  0.24140598  0.36890662    -0.15700
F325        F  0.90622369  0.27226509  0.36516733    -0.19100
F326        F  0.84996065  0.18509766  0.51026373    -0.22500
F327        F  0.90610156  0.24072020  0.51580569    -0.24000
F328        F  0.90611725  0.19060354  0.49381463    -0.18000
F329        F  0.81469698  0.06954355  0.46385574    -0.20500
F330        F  0.75157935  0.03714937  0.45141594    -0.21600
F331        F  0.76892376  0.04785075  0.49863834    -0.18800
F332        F  0.78652297  0.21653594  0.02843541    -0.18900
F333        F  0.80715133  0.24700713  0.98597627    -0.22700
F334        F  0.80966751  0.23648469  0.48843689    -0.24400
C335        C  0.49354940  0.52648440  0.49476843    -0.11200
C336        C  0.51069359  0.51559640  0.47292861     0.11400
C337        C  0.55116986  0.52866454  0.47377097    -0.03000
C338        C  0.54610393  0.56567590  0.02521270    -0.05700
C339        C  0.58678981  0.58161623  0.02219323    -0.16500
C340        C  0.60154623  0.57029961  0.99827764     0.02400
C341        C  0.48582920  0.49232411  0.44843627     0.12400
C342        C  0.57108108  0.51885569  0.44966520     0.63000
H343        H  0.53506967  0.57354758  0.04397466     0.12400
C344        C  0.64507438  0.58604150  0.99371803     0.55100
H345        H  0.46262646  0.51652966  0.49308650     0.08200
C346        C  0.46344129  0.45157094  0.44931702    -0.05600
C347        C  0.44241913  0.43156324  0.42451207    -0.06300
C348        C  0.44151561  0.45103644  0.39953616    -0.15900
C349        C  0.46216958  0.49226534  0.39956033    -0.01500
C350        C  0.48436660  0.51203225  0.42406680    -0.09100
C351        C  0.46042155  0.42949464  0.47673681     0.65200
H352        H  0.42573527  0.40027686  0.42477083     0.10700
C353        C  0.46109768  0.51576727  0.37426718     0.63600
H354        H  0.50102948  0.54334211  0.42452803     0.08000
F355        F  0.66506543  0.62603251  0.99417705    -0.19400
F356        F  0.45620019  0.54783457  0.53367076    -0.15700
F357        F  0.65909336  0.57264480  0.01530872    -0.19100
F358        F  0.56761671  0.53387365  0.42375736    -0.22500
F359        F  0.55383248  0.47922094  0.44692661    -0.24000
F360        F  0.61057099  0.53397569  0.45494466    -0.18000
F361        F  0.42294220  0.50671851  0.36949217    -0.20500
F362        F  0.47603033  0.50803202  0.34961928    -0.21600
F363        F  0.48317199  0.55516792  0.37947338    -0.18800
F364        F  0.43965613  0.38989559  0.47227085    -0.18900
F365        F  0.44126861  0.43824527  0.49792582    -0.22700
F366        F  0.51288747  0.57830082  0.94719323    -0.24400
C367        C  0.55779996  0.56031513  0.20474619    -0.11200
C368        C  0.52410043  0.52697438  0.19500791     0.11400
C369        C  0.51621051  0.52071796  0.16506452    -0.03000
C370        C  0.54424861  0.54703019  0.14552186    -0.05700
C371        C  0.57822834  0.58038906  0.15513832    -0.16500
C372        C  0.58489074  0.58778184  0.18522605     0.02400
C373        C  0.49690396  0.49969965  0.21687082     0.12400
C374        C  0.47770026  0.48736840  0.15396851     0.63000
H375        H  0.53922307  0.54239212  0.12243724     0.12400
C376        C  0.62042405  0.62407940  0.19671376     0.55100
H377        H  0.56239555  0.56475177  0.22787657     0.08200
C378        C  0.50091761  0.46899780  0.22751013    -0.05600
C379        C  0.47391811  0.44424084  0.24829189    -0.06300
C380        C  0.44434706  0.45028171  0.25944351    -0.15900
C381        C  0.44109756  0.48183229  0.24922015    -0.01500
C382        C  0.46741955  0.50581375  0.22773860    -0.09100
C383        C  0.53475483  0.46369995  0.21811279     0.65200
H384        H  0.47647144  0.42051004  0.25667562     0.10700
C385        C  0.41128582  0.49133248  0.26155412     0.63600
H386        H  0.46563101  0.53000958  0.21941457     0.08000
F387        F  0.62290658  0.62356440  0.22657635    -0.19400
F388        F  0.61801679  0.65612157  0.18932858    -0.15700
F389        F  0.65430625  0.62748088  0.18507195    -0.19100
F390        F  0.44712014  0.49164024  0.16392830    -0.22500
F391        F  0.47222881  0.45246756  0.16362740    -0.24000
F392        F  0.47641496  0.48614316  0.12400820    -0.18000
F393        F  0.41635947  0.52559526  0.25057937    -0.20500
F394        F  0.41506130  0.49527791  0.29133874    -0.21600
F395        F  0.37385067  0.46217321  0.25463837    -0.18800
F396        F  0.53176034  0.43064463  0.22981886    -0.18900
F397        F  0.56961930  0.49511763  0.22726581    -0.22700
F398        F  0.53578473  0.46082934  0.18832741    -0.24400
C399        C  0.21573535  0.37983739  0.33519951    -0.11200
C400        C  0.20040149  0.36708076  0.36297990     0.11400
C401        C  0.21911055  0.35433514  0.38206673    -0.03000
C402        C  0.25410541  0.35657773  0.37304379    -0.05700
C403        C  0.27070359  0.37077763  0.34556847    -0.16500
C404        C  0.25089570  0.38234152  0.32602528     0.02400
C405        C  0.16527802  0.36862598  0.37186361     0.12400
C406        C  0.20191240  0.33808143  0.41172102     0.63000
H407        H  0.26883597  0.34720263  0.38764418     0.12400
C408        C  0.26652633  0.39788834  0.29588939     0.55100
H409        H  0.20017726  0.38874946  0.32099619     0.08200
C410        C  0.16815141  0.40340938  0.38172527    -0.05600
C411        C  0.13383527  0.40270546  0.39042943    -0.06300
C412        C  0.09719136  0.36856742  0.38973786    -0.15900
C413        C  0.09436658  0.33358379  0.38023911    -0.01500
C414        C  0.12869621  0.33446814  0.37091491    -0.09100
C415        C  0.20731064  0.44096510  0.38348798     0.65200
H416        H  0.13531826  0.42911340  0.39769381     0.10700
C417        C  0.05596673  0.29527437  0.38137658     0.63600
H418        H  0.12744510  0.30833963  0.36319185     0.08000
F419        F  0.30291932  0.43111087  0.29789351    -0.19400
F420        F  0.24226560  0.40724926  0.28104686    -0.15700
F421        F  0.26937563  0.37024733  0.27977126    -0.19100
F422        F  0.16674406  0.30382133  0.40845737    -0.22500
F423        F  0.19547317  0.36399344  0.42713516    -0.24000
F424        F  0.22655454  0.33058124  0.42788014    -0.18000
F425        F  0.06106186  0.26445744  0.37459575    -0.20500
F426        F  0.02974204  0.29525515  0.36183653    -0.21600
F427        F  0.04027232  0.28944589  0.40902193    -0.18800
F428        F  0.20331331  0.47106930  0.39422797    -0.18900
F429        F  0.22416591  0.45140166  0.35628303    -0.22700
F430        F  0.23220277  0.43634823  0.40161162    -0.24400
C431        C  0.33484720  0.20749237  0.30421179    -0.11200
C432        C  0.36962423  0.20953600  0.29495757     0.11400
C433        C  0.40463910  0.24577121  0.29313949    -0.03000
C434        C  0.40371846  0.27905514  0.30108718    -0.05700
C435        C  0.36902302  0.27732062  0.31023472    -0.16500
C436        C  0.33383631  0.24094431  0.31203169     0.02400
C437        C  0.36905105  0.17331330  0.28767715     0.12400
C438        C  0.44265287  0.24907081  0.28268549     0.63000
H439        H  0.43048412  0.30727247  0.29977820     0.12400
C440        C  0.29582633  0.23731091  0.32283750     0.55100
H441        H  0.30828175  0.17908501  0.30539226     0.08200
C442        C  0.37858680  0.15321490  0.30801841    -0.05600
C443        C  0.38166758  0.12166569  0.29839292    -0.06300
C444        C  0.37567503  0.10953974  0.26928885    -0.15900
C445        C  0.36336236  0.12808653  0.24935722    -0.01500
C446        C  0.36038781  0.15985629  0.25905580    -0.09100
C447        C  0.38626031  0.16362724  0.33995826     0.65200
H448        H  0.38985170  0.10697816  0.31385298     0.10700
C449        C  0.35311935  0.11472253  0.21812283     0.63600
H450        H  0.35244448  0.17531480  0.24416543     0.08000
F451        F  0.26695830  0.19909050  0.32697847    -0.19400
F452        F  0.28229573  0.25318731  0.30283056    -0.15700
F453        F  0.30191156  0.25638215  0.34905888    -0.19100
F454        F  0.43798806  0.23456091  0.25483729    -0.22500
F455        F  0.45294283  0.22836126  0.30069170    -0.24000
F456        F  0.47324670  0.28704167  0.28241001    -0.18000
F457        F  0.33770178  0.13419281  0.20386931    -0.20500
F458        F  0.32536434  0.07570065  0.21734108    -0.21600
F459        F  0.38637666  0.12137187  0.20322456    -0.18800
F460        F  0.42275410  0.16955923  0.34708340    -0.18900
F461        F  0.35818913  0.13320790  0.35622267    -0.22700
F462        F  0.38533301  0.19647931  0.34755487    -0.24400
In463      In  0.39474850  0.38266098  0.84487003     1.36900
C464        C  0.43634353  0.42673087  0.88941200     0.78300
O465        O  0.45157574  0.41564905  0.82036079    -0.60100
O466        O  0.40072505  0.41018500  0.80147471    -0.51100
C467        C  0.38362459  0.31212563  0.83321905     0.71000
O468        O  0.40535736  0.33329181  0.85331402    -0.45900
C469        C  0.32678649  0.37781031  0.85860588     0.75700
O470        O  0.42542063  0.43933873  0.86875525    -0.57800
O471        O  0.34587790  0.39333694  0.83592227    -0.47900
O472        O  0.42607038  0.39157248  0.88693932    -0.54200
C473        C  0.43721392  0.42434465  0.79953555     0.85900
O474        O  0.36686453  0.32672197  0.81970918    -0.56100
O475        O  0.34144944  0.36237419  0.87374630    -0.59400
In476      In  0.63640598  0.00739891  0.50214327     1.36900
C477        C  0.59616044  0.00262356  0.54964744     0.78300
O478        O  0.62431080  0.04445212  0.97529623    -0.60100
O479        O  0.63569829  0.00408531  0.95437687    -0.51100
C480        C  0.72679526  0.08294167  0.98955308     0.71000
O481        O  0.67952131  0.07100083  0.50195599    -0.45900
C482        C  0.64224813  0.94604865  0.51327176     0.75700
O483        O  0.63212018  0.02721709  0.54671977    -0.57800
O484        O  0.63475297  0.95825433  0.99604294    -0.47900
O485        O  0.58114955  0.98069913  0.52811363    -0.54200
C486        C  0.61946160  0.02411180  0.95311338     0.85900
O487        O  0.71517365  0.05016195  0.97842620    -0.56100
O488        O  0.66058282  0.97705168  0.52762096    -0.59400
In489      In  0.02410218  0.40068704  0.90948668     1.36900
C490        C  0.02715009  0.44108945  0.86276861     0.78300
O491        O  0.99803791  0.43207454  0.93172708    -0.60100
O492        O  0.04719022  0.43328067  0.95063460    -0.51100
C493        C  0.96318695  0.33354432  0.92655226     0.71000
O494        O  0.96288060  0.35083119  0.90398521    -0.45900
C495        C  0.08406112  0.38911201  0.90140603     0.75700
O496        O  0.00265604  0.40555420  0.86557034    -0.57800
O497        O  0.05139186  0.36874208  0.88930910    -0.47900
O498        O  0.05074731  0.45518549  0.88354915    -0.54200
C499        C  0.02291320  0.44464917  0.95179630     0.85900
O500        O  0.99531996  0.35026216  0.93982587    -0.56100
O501        O  0.08580233  0.41578704  0.91696683    -0.59400
In502      In  0.38921120  0.01053921  0.75807487     1.36900
C503        C  0.43306354  0.00831766  0.71525994     0.78300
O504        O  0.44511624  0.03921679  0.78237401    -0.60100
O505        O  0.39860824  0.98655137  0.79898096    -0.51100
C506        C  0.37962987  0.06858999  0.77492781     0.71000
O507        O  0.40171440  0.07121680  0.75420563    -0.45900
C508        C  0.32109675  0.95091708  0.74200931     0.75700
O509        O  0.42137043  0.98520930  0.73622689    -0.57800
O510        O  0.33896679  0.95074763  0.76437227    -0.47900
O511        O  0.42113677  0.03212669  0.71563567    -0.54200
C512        C  0.43361288  0.01367248  0.80169429     0.85900
O513        O  0.36003119  0.03527794  0.78573749    -0.56100
O514        O  0.33707909  0.98269513  0.72866917    -0.59400
In515      In  0.63022706  0.63428772  0.58428762     1.36900
C516        C  0.59308657  0.59157268  0.63048263     0.78300
O517        O  0.57075923  0.59720944  0.56527653    -0.60100
O518        O  0.61931075  0.60281618  0.54187620    -0.51100
C519        C  0.63843043  0.70239737  0.57014883     0.71000
O520        O  0.62996952  0.68896905  0.59549612    -0.45900
C521        C  0.70336156  0.65009416  0.59328442     0.75700
O522        O  0.59143730  0.62104250  0.62341173    -0.57800
O523        O  0.68150216  0.62681713  0.57405763    -0.47900
O524        O  0.61446541  0.58487953  0.61405990    -0.54200
C525        C  0.58260998  0.58818978  0.54285854     0.85900
O526        O  0.64248268  0.68071378  0.55250519    -0.56100
O527        O  0.68777623  0.66590414  0.60717941    -0.59400
In528      In  0.01335310  0.64723028  0.65932816     1.36900
C529        C  0.01004043  0.60749908  0.61195178     0.78300
O530        O  0.04050183  0.61685516  0.68111174    -0.60100
O531        O  0.99601334  0.62092690  0.70342486    -0.51100
C532        C  0.07424627  0.71544009  0.67389189     0.71000
O533        O  0.07490056  0.69627059  0.65233941    -0.45900
C534        C  0.94903488  0.65087214  0.65007914     0.75700
O535        O  0.02916569  0.64396112  0.61259647    -0.57800
O536        O  0.94933769  0.62549152  0.66569491    -0.47900
O537        O  0.99286297  0.59208320  0.63538680    -0.54200
C538        C  0.01988631  0.60897709  0.70380575     0.85900
O539        O  0.04169913  0.70048934  0.68675919    -0.56100
O540        O  0.98230224  0.67542052  0.64030427    -0.59400
C541        C  0.84261588  0.62397093  0.63838542    -0.11200
C542        C  0.84812347  0.65709165  0.62414321     0.11400
C543        C  0.88653056  0.68853746  0.61955768    -0.03000
C544        C  0.91824515  0.68578365  0.62990732    -0.05700
C545        C  0.91306111  0.65194999  0.64297342    -0.16500
C546        C  0.87441562  0.61993973  0.64674470     0.02400
C547        C  0.81285263  0.65756901  0.61412719     0.12400
C548        C  0.89425589  0.72396887  0.60244537     0.63000
H549        H  0.94772099  0.70989060  0.62691218     0.12400
C550        C  0.86632184  0.58101237  0.65796186     0.55100
H551        H  0.81287731  0.60064155  0.64206011     0.08200
C552        C  0.78992667  0.63443054  0.59071261    -0.05600
C553        C  0.75504145  0.63381871  0.58417674    -0.06300
C554        C  0.74297119  0.65632170  0.59966524    -0.15900
C555        C  0.76798969  0.68212768  0.62144119    -0.01500
C556        C  0.80163915  0.68091170  0.62905533    -0.09100
C557        C  0.80186241  0.61005001  0.57290173     0.65200
H558        H  0.73641091  0.61481157  0.56720128     0.10700
C559        C  0.76009687  0.71130949  0.63645450     0.63600
H560        H  0.81951615  0.69812186  0.64701998     0.08000
F561        F  0.88586514  0.56765249  0.64089120    -0.19400
F562        F  0.82683106  0.55338076  0.65716957    -0.15700
F563        F  0.87853271  0.58453667  0.68635573    -0.19100
F564        F  0.87779458  0.74294338  0.61627726    -0.22500
F565        F  0.87829979  0.71276989  0.57511955    -0.24000
F566        F  0.93393914  0.75004894  0.59923223    -0.18000
F567        F  0.79139431  0.73705815  0.65334408    -0.20500
F568        F  0.72757736  0.69246239  0.65427941    -0.21600
F569        F  0.75401821  0.73268221  0.61595328    -0.18800
F570        F  0.77904157  0.59502157  0.54838605    -0.18900
F571        F  0.79772063  0.57948936  0.58924387    -0.22700
F572        F  0.84044561  0.63230828  0.56401126    -0.24400
C573        C  0.15064236  0.79824049  0.71999620    -0.11200
C574        C  0.17913325  0.81971045  0.69909086     0.11400
C575        C  0.17351977  0.80698761  0.66997529    -0.03000
C576        C  0.13803692  0.77364614  0.66250824    -0.05700
C577        C  0.10919023  0.75196434  0.68340516    -0.16500
C578        C  0.11587251  0.76404768  0.71288573     0.02400
C579        C  0.21559959  0.85406780  0.70913011     0.12400
C580        C  0.20576340  0.82690681  0.64738843     0.63000
H581        H  0.13307067  0.76351101  0.64025726     0.12400
C582        C  0.08772541  0.74041071  0.73709143     0.55100
H583        H  0.15640987  0.80836513  0.74226145     0.08200
C584        C  0.21997210  0.89126346  0.71001252    -0.05600
C585        C  0.25543643  0.92240071  0.72019791    -0.06300
C586        C  0.28468889  0.91662126  0.73182243    -0.15900
C587        C  0.27896950  0.87874003  0.73278146    -0.01500
C588        C  0.24472574  0.84818104  0.72061961    -0.09100
C589        C  0.18649857  0.89749822  0.70190155     0.65200
H590        H  0.25996050  0.95131410  0.72027749     0.10700
C591        C  0.30870679  0.87038257  0.74635298     0.63600
H592        H  0.23978901  0.81910485  0.72062476     0.08000
F593        F  0.05278203  0.73985309  0.73404170    -0.19400
F594        F  0.10254887  0.75561560  0.76416985    -0.15700
F595        F  0.08088643  0.70302083  0.73630160    -0.19100
F596        F  0.23669916  0.82182347  0.65434704    -0.22500
F597        F  0.21908380  0.86602983  0.64642002    -0.24000
F598        F  0.19291099  0.81189163  0.61994049    -0.18000
F599        F  0.31142507  0.87838860  0.77570374    -0.20500
F600        F  0.34497964  0.89284583  0.73340450    -0.21600
F601        F  0.29818182  0.83198968  0.74317653    -0.18800
F602        F  0.19703858  0.93597491  0.70421879    -0.18900
F603        F  0.15508756  0.87629279  0.72029129    -0.22700
F604        F  0.17474625  0.88569607  0.67376714    -0.20200
C605        C  0.00775286  0.55802668  0.77631299    -0.11200
C606        C  0.03067394  0.54113353  0.77133273     0.11400
C607        C  0.05019141  0.54669352  0.74451132    -0.03000
C608        C  0.04668773  0.56999458  0.72357445    -0.05700
C609        C  0.02332632  0.58676809  0.72821392    -0.16500
C610        C  0.00362511  0.58091286  0.75529735     0.02400
C611        C  0.03176057  0.51601152  0.79425270     0.12400
C612        C  0.07330484  0.52684948  0.73760554     0.63000
H613        H  0.06130584  0.57415434  0.70289148     0.12400
C614        C  0.97819949  0.59825818  0.76235905     0.55100
H615        H  0.99259202  0.55253913  0.79690036     0.08200
C616        C  0.05555790  0.53131781  0.81904064    -0.05600
C617        C  0.05320982  0.50561748  0.84055095    -0.06300
C618        C  0.02810837  0.46529466  0.83805252    -0.15900
C619        C  0.00478818  0.45008881  0.81275555    -0.01500
C620        C  0.00679221  0.47600830  0.79150330    -0.09100
C621        C  0.08348379  0.57455407  0.82265773     0.65200
H622        H  0.07095019  0.51713898  0.85977853     0.10700
C623        C  0.97789396  0.40699534  0.80781318     0.63600
H624        H  0.98847021  0.46530013  0.77247080     0.08000
F625        F  0.96383994  0.59024855  0.79044956    -0.19400
F626        F  0.94638234  0.58310484  0.74396396    -0.15700
F627        F  0.99992823  0.63803519  0.75946533    -0.19100
F628        F  0.04798334  0.48738443  0.73563795    -0.22500
F629        F  0.10034152  0.53433062  0.75910024    -0.24000
F630        F  0.09340260  0.53936898  0.71158525    -0.18000
F631        F  0.94797493  0.39234407  0.82812885    -0.20500
F632        F  0.99897274  0.38827266  0.80991730    -0.21600
F633        F  0.96101607  0.39904824  0.78061879    -0.18800
F634        F  0.10461408  0.58315873  0.84809718    -0.18900
F635        F  0.06282160  0.59377584  0.82325363    -0.22700
F636        F  0.10982635  0.58833485  0.79983263    -0.24400
C637        C  0.00911279  0.56942748  0.53549263    -0.11200
C638        C  0.00457863  0.53330002  0.54212657     0.11400
C639        C  0.00203743  0.52202211  0.57138804    -0.03000
C640        C  0.00414738  0.54749674  0.59314674    -0.05700
C641        C  0.00870966  0.58369717  0.58678225    -0.16500
C642        C  0.01081279  0.59491695  0.55740311     0.02400
C643        C  0.00464742  0.50842439  0.51822392     0.12400
C644        C  0.99684448  0.48309358  0.57970221     0.63000
H645        H  0.00261202  0.53932023  0.61564247     0.12400
C646        C  0.01361241  0.63276988  0.54907526     0.55100
H647        H  0.01146619  0.57751194  0.51290619     0.08200
C648        C  0.97063447  0.48358151  0.50224284    -0.05600
C649        C  0.98773913  0.46829393  0.98192247    -0.06300
C650        C  0.02334573  0.47056135  0.97472800    -0.15900
C651        C  0.04128898  0.48295148  0.49264077    -0.01500
C652        C  0.03951184  0.50862112  0.51263717    -0.09100
C653        C  0.94728118  0.49049755  0.00976095     0.65200
H654        H  0.96154316  0.44813577  0.97022136     0.10700
C655        C  0.07986592  0.48396519  0.48845193     0.63600
H656        H  0.06519173  0.52845341  0.52495134     0.08000
F657        F  0.01126121  0.63585420  0.51939577    -0.19400
F658        F  0.04897412  0.66356414  0.55815354    -0.15700
F659        F  0.98319357  0.63516400  0.56181522    -0.19100
F660        F  0.02837535  0.48032481  0.56996764    -0.22500
F661        F  0.96291641  0.45363331  0.56755915    -0.24000
F662        F  0.99419196  0.47780354  0.60941198    -0.18000
F663        F  0.09090049  0.49015971  0.45959336    -0.20500
F664        F  0.10372910  0.47619836  0.98702430    -0.21600
F665        F  0.10980032  0.51326604  0.50439725    -0.18800
F666        F  0.91793645  0.46554747  0.99113931    -0.18900
F667        F  0.95279721  0.52706345  0.00594748    -0.22700
F668        F  0.92102994  0.47675792  0.53522344    -0.24400
C669        C  0.47566946  0.00236226  0.87245381    -0.11200
C670        C  0.51552482  0.02085860  0.86510425     0.11400
C671        C  0.52819575  0.03605181  0.83706305    -0.03000
C672        C  0.50041229  0.03426597  0.81759670    -0.05700
C673        C  0.46029637  0.01529018  0.82455644    -0.16500
C674        C  0.44744030  0.99872374  0.85241578     0.02400
C675        C  0.54328682  0.02285762  0.88706664     0.12400
C676        C  0.57047318  0.05242578  0.82734315     0.63000
H677        H  0.50982425  0.04673638  0.79633202     0.12400
C678        C  0.40449705  0.97758016  0.86116752     0.55100
H679        H  0.46689792  0.99029209  0.89395531     0.08200
C680        C  0.56138847  0.05397027  0.90681635    -0.05600
C681        C  0.58789052  0.05412925  0.92682631    -0.06300
C682        C  0.59518042  0.02336139  0.92860281    -0.15900
C683        C  0.57578283  0.99147166  0.90928059    -0.01500
C684        C  0.55050993  0.99223458  0.88847073    -0.09100
C685        C  0.55134784  0.08584330  0.90758344     0.65200
H686        H  0.60222066  0.07794841  0.94200553     0.10700
C687        C  0.58015148  0.95607831  0.91114464     0.63600
H688        H  0.53549419  0.96852259  0.87327137     0.08000
F689        F  0.39943721  0.96866444  0.89037826    -0.19400
F690        F  0.38453573  0.94334489  0.84575478    -0.15700
F691        F  0.38834761  0.00036765  0.85561990    -0.19100
F692        F  0.57983495  0.02365879  0.82828464    -0.22500
F693        F  0.59562538  0.08241594  0.84524301    -0.24000
F694        F  0.57657520  0.06638167  0.79929611    -0.18000
F695        F  0.57004592  0.94041282  0.93864387    -0.20500
F696        F  0.61842403  0.96631488  0.90498598    -0.21600
F697        F  0.55615347  0.92756099  0.89167789    -0.18800
F698        F  0.57261927  0.11352299  0.92840077    -0.18900
F699        F  0.51200723  0.07006048  0.91396513    -0.22700
F700        F  0.55916824  0.10418482  0.88110392    -0.24400
C701        C  0.51086355  0.99817073  0.67393850    -0.11200
C702        C  0.50502737  0.00697938  0.64586161     0.11400
C703        C  0.47512346  0.01540352  0.64034269    -0.03000
C704        C  0.45283624  0.01637991  0.66379695    -0.05700
C705        C  0.45848793  0.00746979  0.69202654    -0.16500
C706        C  0.48805508  0.99820022  0.69732868     0.02400
C707        C  0.52994407  0.00573268  0.62245817     0.12400
C708        C  0.46608241  0.02206828  0.60973212     0.63000
H709        H  0.42993015  0.02303336  0.66012188     0.12400
C710        C  0.49612444  0.98884919  0.72739255     0.55100
H711        H  0.53343275  0.99093321  0.67727129     0.08200
C712        C  0.56698495  0.03800389  0.61579999    -0.05600
C713        C  0.58797300  0.03529784  0.59218650    -0.06300
C714        C  0.57342185  0.00123094  0.57568427    -0.15900
C715        C  0.53780093  0.96776248  0.58417102    -0.01500
C716        C  0.51646739  0.97089283  0.60741621    -0.09100
C717        C  0.58410334  0.07511387  0.63345361     0.65200
H718        H  0.61562092  0.06028487  0.58601422     0.10700
C719        C  0.52277715  0.92863870  0.56969969     0.63600
H720        H  0.48870941  0.94624367  0.61391657     0.08000
F721        F  0.53044994  0.98772222  0.72818679    -0.19400
F722        F  0.46569079  0.95310025  0.73594072    -0.15700
F723        F  0.49989796  0.01678671  0.74686556    -0.19100
F724        F  0.45484761  0.98929732  0.59317530    -0.22500
F725        F  0.49879024  0.05281987  0.59725340    -0.24000
F726        F  0.43601629  0.03009994  0.60924421    -0.18000
F727        F  0.55208932  0.91955406  0.56923012    -0.20500
F728        F  0.51094712  0.92934637  0.54175010    -0.21600
F729        F  0.49100843  0.89941615  0.58439306    -0.18800
F730        F  0.62133087  0.10225888  0.62402635    -0.18900
F731        F  0.58667126  0.06738941  0.66221389    -0.22700
F732        F  0.56054271  0.09112375  0.63133086    -0.24400
C733        C  0.61351244  0.84114831  0.52526050    -0.11200
C734        C  0.64680376  0.84585947  0.53939569     0.11400
C735        C  0.67924717  0.88347145  0.54400737    -0.03000
C736        C  0.67644965  0.91531410  0.53503520    -0.05700
C737        C  0.64307741  0.91074271  0.52092758    -0.16500
C738        C  0.61079122  0.87295831  0.51603928     0.02400
C739        C  0.64616516  0.81031894  0.54845941     0.12400
C740        C  0.71713050  0.89196980  0.55847513     0.63000
H741        H  0.70094528  0.94422540  0.53889187     0.12400
C742        C  0.58571442  0.87647015  0.00924076     0.55100
H743        H  0.60376317  0.82458523  0.03058343     0.08200
C744        C  0.62971449  0.79206727  0.57514701    -0.05600
C745        C  0.62804011  0.75703335  0.58140967    -0.06300
C746        C  0.64249662  0.74005321  0.56192296    -0.15900
C747        C  0.66015502  0.75935727  0.53546173    -0.01500
C748        C  0.66103924  0.79397137  0.52911904    -0.09100
C749        C  0.61428513  0.80979838  0.59684438     0.65200
H750        H  0.61500249  0.74245342  0.60160895     0.10700
C751        C  0.67862836  0.74433446  0.51400482     0.63600
H752        H  0.67339379  0.80879128  0.50885459     0.08000
F753        F  0.57202126  0.89798665  0.02309025    -0.19400
F754        F  0.55711768  0.83782657  0.01182052    -0.15700
F755        F  0.59098803  0.88539541  0.98007768    -0.19100
F756        F  0.74848576  0.91572578  0.54073807    -0.22500
F757        F  0.71912193  0.85927872  0.56410730    -0.24000
F758        F  0.72092076  0.91095442  0.58440681    -0.18000
F759        F  0.64996202  0.71010616  0.50176015    -0.20500
F760        F  0.70585992  0.73835702  0.52795582    -0.21600
F761        F  0.69790773  0.77022818  0.49173277    -0.18800
F762        F  0.59949516  0.78747831  0.62153833    -0.18900
F763        F  0.58459030  0.81337201  0.58456513    -0.22700
F764        F  0.64425507  0.84598866  0.60502402    -0.24400
C765        C  0.85961426  0.24928063  0.94053638    -0.11200
C766        C  0.86716672  0.22686147  0.95950950     0.11400
C767        C  0.90617227  0.23909043  0.96741294    -0.03000
C768        C  0.93656735  0.27397964  0.95593676    -0.05700
C769        C  0.92911107  0.29678288  0.93698702    -0.16500
C770        C  0.88976006  0.28456718  0.92953331     0.02400
C771        C  0.83326313  0.18982391  0.96949602     0.12400
C772        C  0.91560495  0.21540873  0.98777600     0.63000
H773        H  0.96660841  0.28357213  0.96156653     0.12400
C774        C  0.87903159  0.30872731  0.91079699     0.55100
H775        H  0.82951724  0.23869595  0.93441838     0.08200
C776        C  0.80723680  0.18832914  0.99125015    -0.05600
C777        C  0.77431600  0.15234711  0.99814212    -0.06300
C778        C  0.76496063  0.11843567  0.98258165    -0.15900
C779        C  0.79051547  0.12052317  0.95985720    -0.01500
C780        C  0.82480604  0.15616823  0.95436708    -0.09100
C781        C  0.81285877  0.22482089  0.00590134     0.65200
H782        H  0.71928735  0.13924184  0.48648002     0.10700
C783        C  0.78118492  0.08634287  0.94030199     0.63600
H784        H  0.84467045  0.15862047  0.93716381     0.08000
F785        F  0.87615425  0.30202968  0.38529699    -0.19400
F786        F  0.83889415  0.29327503  0.90946488    -0.15700
F787        F  0.89265320  0.31046437  0.88286622    -0.19100
F788        F  0.90466121  0.17995744  0.97534119    -0.22500
F789        F  0.89558909  0.20963051  0.01364178    -0.24000
F790        F  0.95523581  0.23366010  0.99387379    -0.18000
F791        F  0.80938616  0.09583635  0.91897919    -0.20500
F792        F  0.74581870  0.07393313  0.92659785    -0.21600
F793        F  0.77927323  0.05654485  0.95642962    -0.18800
F794        F  0.74461389  0.20616858  0.48282756    -0.18900
F795        F  0.78351915  0.22531749  0.44377440    -0.22700
F796        F  0.85026575  0.24615140  0.01698545    -0.24400
C797        C  0.57477442  0.54397361  0.97799932    -0.11200
C798        C  0.53431984  0.52879361  0.98092345     0.11400
C799        C  0.51947210  0.53880909  0.00528014    -0.03000
C800        C  0.57316790  0.55165356  0.49727778    -0.05700
C801        C  0.55624553  0.56276137  0.51944792    -0.16500
C802        C  0.51555330  0.55015457  0.51806762     0.02400
C803        C  0.50835332  0.50306958  0.95767776     0.12400
C804        C  0.47572430  0.52030398  0.01074349     0.63000
H805        H  0.60410724  0.56152519  0.49824866     0.12400
C806        C  0.49515391  0.56198127  0.54039090     0.55100
H807        H  0.58516325  0.53502618  0.95944253     0.08200
C808        C  0.50409283  0.51803813  0.93120861    -0.05600
C809        C  0.48028623  0.49201067  0.90961671    -0.06300
C810        C  0.46002417  0.45176226  0.91390771    -0.15900
C811        C  0.46274255  0.43699930  0.94115964    -0.01500
C812        C  0.48783353  0.46308006  0.96229678    -0.09100
C813        C  0.52418265  0.56135408  0.92602528     0.65200
H814        H  0.47757819  0.50308587  0.88898606     0.10700
C815        C  0.43851007  0.39428488  0.94851828     0.63600
H816        H  0.49163411  0.45246558  0.98279347     0.08000
F817        F  0.49628924  0.54765341  0.56729214    -0.19400
F818        F  0.65280624  0.57452996  0.96737309    -0.15700
F819        F  0.51338457  0.60187282  0.54159077    -0.19100
F820        F  0.46009691  0.48157086  0.01700654    -0.22500
F821        F  0.45735818  0.52376413  0.98660207    -0.24000
F822        F  0.46770491  0.53736056  0.03388002    -0.18000
F823        F  0.45110194  0.37362439  0.93220364    -0.20500
F824        F  0.39937877  0.38082672  0.94298779    -0.21600
F825        F  0.44162825  0.38747355  0.97744995    -0.18800
F826        F  0.51460979  0.56976264  0.89937394    -0.18900
F827        F  0.56437645  0.57765148  0.92683455    -0.22700
F828        F  0.49723628  0.43953818  0.48658322    -0.24400
C829        C  0.54026997  0.50703013  0.68321016    -0.11200
C830        C  0.52343728  0.52175482  0.70235248     0.11400
C831        C  0.53189200  0.56029435  0.69917697    -0.03000
C832        C  0.55510223  0.58194344  0.67560620    -0.05700
C833        C  0.57102616  0.56693573  0.65567486    -0.16500
C834        C  0.56462495  0.52908536  0.66013264     0.02400
C835        C  0.50052424  0.49687865  0.72694457     0.12400
C836        C  0.51856987  0.58059932  0.72025354     0.63000
H837        H  0.56107350  0.61125828  0.67292978     0.12400
C838        C  0.58358072  0.51184700  0.64126737     0.55100
H839        H  0.53450231  0.47798451  0.68691095     0.08200
C840        C  0.46009612  0.46960292  0.72483159    -0.05600
C841        C  0.44074885  0.44619192  0.74894518    -0.06300
C842        C  0.46061790  0.44930802  0.77488582    -0.15900
C843        C  0.50126311  0.47719188  0.77689637    -0.01500
C844        C  0.52048895  0.50025059  0.75262508    -0.09100
C845        C  0.43764091  0.46579208  0.69732564     0.65200
H846        H  0.40976883  0.42516220  0.74765704     0.10700
C847        C  0.52437466  0.48363872  0.80452270     0.63600
H848        H  0.55148982  0.52140726  0.75341396     0.08000
F849        F  0.57335325  0.47494439  0.64998217    -0.19400
F850        F  0.62391933  0.53463273  0.64303694    -0.15700
F851        F  0.57191259  0.50952511  0.61281837    -0.19100
F852        F  0.55101954  0.60955348  0.73434516    -0.22500
F853        F  0.49228577  0.55630436  0.74088006    -0.24000
F854        F  0.50078070  0.59713869  0.70517047    -0.18000
F855        F  0.56231565  0.51457861  0.80215233    -0.20500
F856        F  0.52650245  0.45110431  0.81063927    -0.21600
F857        F  0.50644144  0.49140654  0.82727043    -0.18800
F858        F  0.39850844  0.43749202  0.69970425    -0.18900
F859        F  0.45361994  0.45615152  0.67432377    -0.22700
F860        F  0.43974400  0.50053076  0.69147574    -0.24400
C861        C  0.24724876  0.40435847  0.86581770    -0.11200
C862        C  0.22269507  0.37768056  0.88655171     0.11400
C863        C  0.23163069  0.35043804  0.89783581    -0.03000
C864        C  0.26597470  0.35155102  0.88814186    -0.05700
C865        C  0.29077964  0.37829414  0.86716612    -0.16500
C866        C  0.28128557  0.40541564  0.85581768     0.02400
C867        C  0.18619798  0.37758459  0.89370929     0.12400
C868        C  0.20491827  0.32027683  0.91976046     0.63000
H869        H  0.27342629  0.33108943  0.89665480     0.12400
C870        C  0.30651935  0.43564035  0.83337958     0.55100
H871        H  0.23893354  0.42413410  0.85716064     0.08200
C872        C  0.18587173  0.40522294  0.91261035    -0.05600
C873        C  0.15141594  0.40686716  0.91499963    -0.06300
C874        C  0.11793947  0.38293507  0.89833871    -0.15900
C875        C  0.11848528  0.35511619  0.87937658    -0.01500
C876        C  0.15274646  0.35290517  0.87767100    -0.09100
C877        C  0.22233029  0.43427909  0.92896077     0.65200
H878        H  0.15104112  0.42814755  0.92931177     0.10700
C879        C  0.08399710  0.32860435  0.86027235     0.63600
H880        H  0.15440760  0.33277774  0.86281397     0.08000
F881        F  0.34448302  0.45777900  0.84336386    -0.19400
F882        F  0.29293981  0.46055430  0.82748482    -0.15700
F883        F  0.30627196  0.41758914  0.80770123    -0.19100
F884        F  0.16822238  0.29706015  0.90795996    -0.22500
F885        F  0.20137121  0.33818911  0.94428969    -0.24000
F886        F  0.21922561  0.29671006  0.92803509    -0.18000
F887        F  0.09169021  0.30464536  0.84329054    -0.20500
F888        F  0.07561203  0.35046610  0.84187964    -0.21600
F889        F  0.05162236  0.30530960  0.87728762    -0.18800
F890        F  0.21421812  0.45512147  0.94899680    -0.18900
F891        F  0.24990475  0.46010715  0.90964778    -0.22700
F892        F  0.23810946  0.41558648  0.94368752    -0.24400
C893        C  0.36968321  0.22255285  0.79287673    -0.11200
C894        C  0.37301181  0.20148371  0.81557320     0.11400
C895        C  0.37893304  0.21617132  0.84415965    -0.03000
C896        C  0.38190824  0.25226418  0.84901530    -0.05700
C897        C  0.37864009  0.27361584  0.82627287    -0.16500
C898        C  0.37237336  0.25848360  0.79762311     0.02400
C899        C  0.37282137  0.16539276  0.80803774     0.12400
C900        C  0.38139087  0.19337354  0.86933218     0.63000
H901        H  0.38666900  0.26403720  0.87072356     0.12400
C902        C  0.36996669  0.28052973  0.77188473     0.55100
H903        H  0.36541467  0.21063463  0.77122512     0.08200
C904        C  0.33811718  0.12989109  0.80180400    -0.05600
C905        C  0.34148896  0.09887606  0.79091293    -0.06300
C906        C  0.37811420  0.10222592  0.78640908    -0.15900
C907        C  0.41263953  0.13698554  0.79410413    -0.01500
C908        C  0.40934743  0.16829244  0.80422260    -0.09100
C909        C  0.29701672  0.12295154  0.80603702     0.65200
H910        H  0.31522287  0.07183983  0.78564369     0.10700
C911        C  0.45268781  0.14060057  0.79267144     0.63600
H912        H  0.43547560  0.19568395  0.80897448     0.08000
F913        F  0.36800799  0.26226713  0.74588231    -0.19400
F914        F  0.40284048  0.31714790  0.77094046    -0.15700
F915        F  0.33672486  0.28337023  0.77421580    -0.19100
F916        F  0.41305471  0.18817240  0.86562778    -0.22500
F917        F  0.34745446  0.15760529  0.87071863    -0.24000
F918        F  0.38577667  0.21206518  0.89553790    -0.18000
F919        F  0.48146713  0.17496390  0.80473754    -0.20500
F920        F  0.46298902  0.13941424  0.76417937    -0.21600
F921        F  0.45183854  0.11058341  0.80783987    -0.18800
F922        F  0.27587066  0.09095148  0.82352721    -0.18900
F923        F  0.27878141  0.11574273  0.77943533    -0.22700
F924        F  0.29621184  0.15372700  0.81885676    -0.24400
loop_ 
_geom_bond_atom_site_label_1 
_geom_bond_atom_site_label_2 
_geom_bond_distance 
_geom_bond_site_symmetry_2 
_ccdc_geom_bond_type 
In1           O3   2.241       .  S
In1           O4   2.236       .  S
In1          O12   2.255       .  S
In1           O6   2.240       .  S
In1           O8   2.248       .  S
In1           O9   2.229       .  S
In1          O10   2.238       .  S
In1          O13   2.239       .  S
C2            O8   1.262       .  A
C2           O10   1.257       .  A
C2          C348   1.491       .  S
O3           C11   1.258       .  A
O4           C11   1.259       .  A
C5           O12   1.257       .  A
C5            O6   1.258       .  A
C5          C435   1.479       .  S
C7            O9   1.259       .  A
C7           O13   1.264       .  A
C7          C403   1.489       .  S
C11         C380   1.479       .  S
In14         O19   2.239       .  S
In14         O21   2.252       .  S
In14         O23   2.218       .  S
In14         O26   2.238   1_545  S
In14        O478   2.220   1_554  S
In14        O479   2.244   1_554  S
In14        O487   2.252   1_554  S
In14        O484   2.248   1_544  S
C15          O21   1.263       .  A
C15          O23   1.257       .  A
C15         C252   1.469       .  S
O16        In476   2.235       .  S
O16          C24   1.257       .  A
O17        In476   2.246   1_565  S
O17          C24   1.261   1_565  A
C18          O25   1.257       .  A
C18         O481   1.260       .  A
C18         C316   1.484       .  S
O19         C480   1.261   1_554  A
C20          O26   1.261       .  A
C20         O484   1.258   1_554  A
C20         C275   1.484       .  S
O22        In476   2.222   1_565  S
O22         C482   1.261       .  A
C24         C220   1.484       .  S
O25        In476   2.235       .  S
In27         O29   2.248   1_455  S
In27         O30   2.250       .  S
In27         O38   2.241   1_455  S
In27         O32   2.234   1_455  S
In27         O34   2.234   1_455  S
In27         O35   2.241       .  S
In27         O36   2.232       .  S
In27         O39   2.232       .  S
C28          O34   1.259   1_455  A
C28          O36   1.260       .  A
C28         C156   1.480       .  S
O29          C37   1.260   1_655  A
O30          C37   1.259       .  A
C31          O38   1.262       .  A
C31          O32   1.257       .  A
C31         C307   1.487       .  S
C33          O35   1.259       .  A
C33          O39   1.261       .  A
C33         C412   1.475       .  S
C37         C188   1.490       .  S
In40         O42   2.247       .  S
In40         O43   2.233   1_545  S
In40         O51   2.252       .  S
In40         O45   2.248       .  S
In40         O47   2.239   1_545  S
In40         O48   2.239   1_545  S
In40         O49   2.239       .  S
In40         O52   2.227   1_545  S
C41          O47   1.259   1_545  A
C41          O49   1.263       .  A
C41         C243   1.484       .  S
O42          C50   1.261       .  A
O43          C50   1.261   1_565  A
C44          O51   1.256       .  A
C44          O45   1.258       .  A
C44         C444   1.489       .  S
C46          O48   1.258       .  A
C46          O52   1.260       .  A
C46         C124   1.482       .  S
C50         C211   1.479       .  S
In53         O55   2.244       .  S
In53         O56   2.232       .  S
In53         O64   2.248       .  S
In53         O58   2.241       .  S
In53         O60   2.236       .  S
In53         O61   2.237       .  S
In53         O62   2.247       .  S
In53         O65   2.253       .  S
C54          O60   1.257       .  A
C54          O62   1.259       .  A
C54         C371   1.475       .  S
O55          C63   1.261       .  A
O56          C63   1.262       .  A
C57          O64   1.259       .  A
C57          O58   1.260       .  A
C57         C284   1.490       .  S
C59          O61   1.258       .  A
C59          O65   1.259       .  A
C59          C92   1.473       .  S
C63         C339   1.485       .  S
In66         O68   2.247       .  S
In66         O69   2.219   1_455  S
In66         O77   2.226       .  S
In66         O71   2.248       .  S
In66         O73   2.230       .  S
In66         O74   2.242   1_455  S
In66         O75   2.239       .  S
In66         O78   2.246   1_455  S
C67          O73   1.258       .  A
C67          O75   1.260       .  A
C67         C179   1.475       .  S
O68          C76   1.262       .  A
O69          C76   1.259   1_655  A
C70          O77   1.256       .  A
C70          O71   1.260       .  A
C70         C115   1.482       .  S
C72          O74   1.257       .  A
C72          O78   1.259       .  A
C72          C83   1.483       .  S
C76         C147   1.474       .  S
C79          C80   1.399       .  A
C79          C84   1.406       .  A
C79          H89   1.084       .  S
C80          C85   1.479       .  S
C80          C81   1.413       .  A
C81          C82   1.404       .  A
C81          C86   1.519       .  S
C82          C83   1.406       .  A
C82          H87   1.083       .  S
C83          C84   1.422       .  A
C84          C88   1.520       .  S
C85          C90   1.415       .  A
C85          C94   1.402       .  A
C86         F102   1.382       .  S
C86         F103   1.382       .  S
C86         F104   1.385       .  S
C88          F99   1.382       .  S
C88         F100   1.385       .  S
C88         F101   1.384       .  S
C90          C91   1.403       .  A
C90          C95   1.521       .  S
C91          C92   1.401       .  A
C91          H96   1.084       .  S
C92          C93   1.416       .  A
C93          C94   1.408       .  A
C93          C97   1.517       .  S
C94          H98   1.083       .  S
C95         F108   1.384       .  S
C95         F109   1.383       .  S
C95         F110   1.382       .  S
C97         F105   1.385       .  S
C97         F106   1.383       .  S
C97         F107   1.384       .  S
C111        C112   1.398       .  A
C111        C116   1.404       .  A
C111        H121   1.083       .  S
C112        C117   1.475       .  S
C112        C113   1.414       .  A
C113        C114   1.404       .  A
C113        C118   1.522       .  S
C114        C115   1.407       .  A
C114        H119   1.083       .  S
C115        C116   1.423       .  A
C116        C120   1.520       .  S
C117        C122   1.411       .  A
C117        C126   1.399       .  A
C118        F134   1.382       .  S
C118        F135   1.382       .  S
C118        F136   1.384       .  S
C120        F131   1.384       .  S
C120        F132   1.384       .  S
C120        F133   1.383       .  S
C122        C123   1.403       .  A
C122        C127   1.520       .  S
C123        C124   1.407       .  A
C123        H128   1.082       .  S
C124        C125   1.423       .  A
C125        C126   1.404       .  A
C125        C129   1.521       .  S
C126        H130   1.083       .  S
C127        F140   1.385       .  S
C127        F141   1.382       .  S
C127        F142   1.382       .  S
C129        F137   1.383       .  S
C129        F138   1.383       .  S
C129        F139   1.385       .  S
C143        C144   1.399       .  A
C143        C148   1.402       .  A
C143        H153   1.083       .  S
C144        C149   1.477       .  S
C144        C145   1.415       .  A
C145        C146   1.406       .  A
C145        C150   1.519       .  S
C146        C147   1.404       .  A
C146        H151   1.083       .  S
C147        C148   1.418       .  A
C148        C152   1.519       .  S
C149        C154   1.413       .  A
C149        C158   1.400   1_455  A
C150        F166   1.382       .  S
C150        F167   1.383       .  S
C150        F168   1.385       .  S
C152        F163   1.385   1_455  S
C152        F164   1.382   1_455  S
C152        F165   1.384       .  S
C154        C155   1.402       .  A
C154        C159   1.520       .  S
C155        C156   1.405       .  A
C155        H160   1.083       .  S
C156        C157   1.421   1_455  A
C157        C158   1.406       .  A
C157        C161   1.520       .  S
C158        H162   1.084       .  S
C159        F172   1.385       .  S
C159        F173   1.382       .  S
C159        F174   1.383       .  S
C161        F169   1.383       .  S
C161        F170   1.384       .  S
C161        F171   1.385       .  S
C175        C176   1.398       .  A
C175        C180   1.403       .  A
C175        H185   1.084       .  S
C176        C181   1.472       .  S
C176        C177   1.413       .  A
C177        C178   1.403       .  A
C177        C182   1.521       .  S
C178        C179   1.405       .  A
C178        H183   1.084       .  S
C179        C180   1.420       .  A
C180        C184   1.519       .  S
C181        C186   1.412   1_455  A
C181        C190   1.398       .  A
C182        F198   1.383       .  S
C182        F199   1.382   1_455  S
C182        F200   1.384       .  S
C184        F195   1.385       .  S
C184        F196   1.383       .  S
C184        F197   1.384       .  S
C186        C649   1.403   1_554  A
C186        C653   1.519       .  S
C187        C188   1.408   1_655  A
C187        C648   1.407       .  A
C187        H192   1.083       .  S
C188        C651   1.424       .  A
C189        C190   1.402   1_556  A
C189        C650   1.420       .  A
C189        C193   1.520       .  S
C190        H194   1.084       .  S
C191        C648   1.519       .  S
C191        F204   1.385       .  S
C191        F205   1.382       .  S
C191        F668   1.382       .  S
C193        F201   1.384       .  S
C193        F203   1.385       .  S
C193        F664   1.382       .  S
F202        C655   1.383       .  S
F206        C653   1.382       .  S
C207        C208   1.401       .  A
C207        C212   1.407       .  A
C207        H217   1.082       .  S
C208        C213   1.480       .  S
C208        C209   1.414   1_545  A
C209        C210   1.403   1_565  A
C209        C214   1.520       .  S
C210        C211   1.404       .  A
C210        H215   1.082   1_545  S
C211        C212   1.420       .  A
C212        C216   1.519       .  S
C213        C218   1.412   1_545  A
C213        C222   1.399       .  A
C214        F230   1.382   1_565  S
C214        F231   1.382       .  S
C214        F232   1.385       .  S
C216        F227   1.385       .  S
C216        F228   1.382       .  S
C216        F229   1.384       .  S
C218        C219   1.405       .  A
C218        C223   1.519       .  S
C219        C220   1.406   1_565  A
C219        H224   1.082       .  S
C220        C221   1.424       .  A
C221        C222   1.406       .  A
C221        C225   1.521       .  S
C222        H226   1.083       .  S
C223        F236   1.384       .  S
C223        F237   1.382       .  S
C223        F238   1.382       .  S
C225        F233   1.384       .  S
C225        F234   1.383       .  S
C225        F235   1.385       .  S
C239        C240   1.400   1_565  A
C239        C244   1.407       .  A
C239        H249   1.085       .  S
C240        C245   1.477       .  S
C240        C241   1.411       .  A
C241        C242   1.403       .  A
C241        C246   1.520       .  S
C242        C243   1.406       .  A
C242        H247   1.084       .  S
C243        C244   1.424   1_545  A
C244        C248   1.520       .  S
C245        C250   1.416       .  A
C245        C254   1.400       .  A
C246        F262   1.381       .  S
C246        F263   1.384       .  S
C246        F264   1.383       .  S
C248        F259   1.385       .  S
C248        F260   1.384       .  S
C248        F261   1.382       .  S
C250        C251   1.405       .  A
C250        C255   1.520   1_545  S
C251        C252   1.401       .  A
C251        H256   1.083       .  S
C252        C253   1.417       .  A
C253        C254   1.404       .  A
C253        C257   1.520       .  S
C254        H258   1.083       .  S
C255        F268   1.384       .  S
C255        F269   1.383       .  S
C255        F270   1.382   1_565  S
C257        F265   1.383       .  S
C257        F266   1.383       .  S
C257        F267   1.384       .  S
C271        C272   1.400       .  A
C271        C276   1.407       .  A
C271        H743   1.084       .  S
C272        C277   1.482       .  S
C272        C273   1.414       .  A
C273        C274   1.403       .  A
C273        C278   1.518       .  S
C274        C275   1.405       .  A
C274        H279   1.083       .  S
C275        C276   1.423       .  A
C276        C742   1.520       .  S
C277        C282   1.414       .  A
C277        C286   1.399       .  A
C278        F294   1.382       .  S
C278        F295   1.382       .  S
C278        F296   1.385       .  S
C280        C738   1.521       .  S
C280        F291   1.383       .  S
C280        F292   1.384       .  S
C280        F293   1.383       .  S
H281        C733   1.084       .  S
C282        C283   1.406       .  A
C282        C287   1.521       .  S
C283        C284   1.409       .  A
C283        H288   1.082       .  S
C284        C285   1.424       .  A
C285        C286   1.407       .  A
C285        C289   1.519       .  S
C286        H290   1.083       .  S
C287        F300   1.385       .  S
C287        F301   1.382       .  S
C287        F302   1.382       .  S
C289        F297   1.384       .  S
C289        F298   1.383       .  S
C289        F299   1.385   1_554  S
C303        C304   1.400       .  A
C303        C308   1.406       .  A
C303        H313   1.083       .  S
C304        C309   1.477       .  S
C304        C305   1.414       .  A
C305        C306   1.402       .  A
C305        C310   1.521       .  S
C306        C307   1.407       .  A
C306        H311   1.084       .  S
C307        C308   1.425       .  A
C308        C312   1.521       .  S
C309        C314   1.413       .  A
C309        C318   1.399       .  A
C310        F326   1.382       .  S
C310        F327   1.384       .  S
C310        F328   1.383       .  S
C312        F324   1.385       .  S
C312        F325   1.383       .  S
C312        F785   1.383       .  S
C314        C315   1.402       .  A
C314        C319   1.521       .  S
C315        C316   1.407       .  A
C315        H782   1.083       .  S
C316        C317   1.424       .  A
C317        C318   1.406       .  A
C317        C321   1.520       .  S
C318        H322   1.084       .  S
C319        F334   1.383       .  S
C319        F794   1.384       .  S
C319        F795   1.382       .  S
H320        C777   1.082   1_554  S
C321        F329   1.385       .  S
C321        F330   1.383       .  S
C321        F331   1.384       .  S
F323        C774   1.384       .  S
F332        C781   1.385       .  S
F333        C781   1.382   1_556  S
C335        C336   1.398       .  A
C335        C802   1.407       .  A
C335        H345   1.082       .  S
C336        C341   1.480       .  S
C336        C337   1.413       .  A
C337        C800   1.405       .  A
C337        C342   1.521       .  S
C338        C339   1.407       .  A
C338        C799   1.404       .  A
C338        H343   1.083       .  S
C339        C340   1.422   1_554  A
C340        C797   1.408       .  A
C340        C344   1.519       .  S
C341        C346   1.411       .  A
C341        C350   1.399       .  A
C342        F358   1.382       .  S
C342        F359   1.382       .  S
C342        F360   1.384       .  S
C344        F355   1.383       .  S
C344        F357   1.383   1_556  S
C344        F818   1.385       .  S
C346        C347   1.405       .  A
C346        C351   1.519       .  S
C347        C348   1.409       .  A
C347        H352   1.082       .  S
C348        C349   1.426       .  A
C349        C350   1.407       .  A
C349        C353   1.521       .  S
C350        H354   1.083       .  S
C351        F364   1.385       .  S
C351        F365   1.383       .  S
C351        F828   1.382       .  S
C353        F361   1.384       .  S
C353        F362   1.383       .  S
C353        F363   1.385       .  S
F356        C806   1.385       .  S
F366        C813   1.383       .  S
C367        C368   1.401       .  A
C367        C372   1.406       .  A
C367        H377   1.083       .  S
C368        C373   1.476       .  S
C368        C369   1.413       .  A
C369        C370   1.403       .  A
C369        C374   1.521       .  S
C370        C371   1.405       .  A
C370        H375   1.083       .  S
C371        C372   1.417       .  A
C372        C376   1.518       .  S
C373        C378   1.413       .  A
C373        C382   1.399       .  A
C374        F390   1.383       .  S
C374        F391   1.381       .  S
C374        F392   1.384       .  S
C376        F387   1.384       .  S
C376        F388   1.383       .  S
C376        F389   1.384       .  S
C378        C379   1.403       .  A
C378        C383   1.520       .  S
C379        C380   1.405       .  A
C379        H384   1.083       .  S
C380        C381   1.421       .  A
C381        C382   1.405       .  A
C381        C385   1.520       .  S
C382        H386   1.083       .  S
C383        F396   1.385       .  S
C383        F397   1.382       .  S
C383        F398   1.381       .  S
C385        F393   1.385       .  S
C385        F394   1.384       .  S
C385        F395   1.383       .  S
C399        C400   1.399       .  A
C399        C404   1.407       .  A
C399        H409   1.083       .  S
C400        C405   1.479       .  S
C400        C401   1.411       .  A
C401        C402   1.404       .  A
C401        C406   1.520       .  S
C402        C403   1.408       .  A
C402        H407   1.082       .  S
C403        C404   1.426       .  A
C404        C408   1.521       .  S
C405        C410   1.415       .  A
C405        C414   1.402       .  A
C406        F422   1.382       .  S
C406        F423   1.383       .  S
C406        F424   1.384       .  S
C408        F419   1.384       .  S
C408        F420   1.385       .  S
C408        F421   1.383       .  S
C410        C411   1.402       .  A
C410        C415   1.521       .  S
C411        C412   1.402       .  A
C411        H416   1.083       .  S
C412        C413   1.418       .  A
C413        C414   1.407       .  A
C413        C417   1.519       .  S
C414        H418   1.083       .  S
C415        F428   1.385       .  S
C415        F429   1.382       .  S
C415        F430   1.382       .  S
C417        F425   1.385       .  S
C417        F426   1.382       .  S
C417        F427   1.384       .  S
C431        C432   1.402       .  A
C431        C436   1.409       .  A
C431        H441   1.092       .  S
C432        C437   1.480       .  S
C432        C433   1.414       .  A
C433        C434   1.402       .  A
C433        C438   1.519       .  S
C434        C435   1.403       .  A
C434        H439   1.092       .  S
C435        C436   1.420       .  A
C436        C440   1.518       .  S
C437        C442   1.415       .  A
C437        C446   1.402       .  A
C438        F454   1.383       .  S
C438        F455   1.382       .  S
C438        F456   1.384       .  S
C440        F451   1.385       .  S
C440        F452   1.383       .  S
C440        F453   1.384       .  S
C442        C443   1.402       .  A
C442        C447   1.521       .  S
C443        C444   1.407       .  A
C443        H448   1.080       .  S
C444        C445   1.424       .  A
C445        C446   1.409       .  A
C445        C449   1.520       .  S
C446        H450   1.080       .  S
C447        F460   1.384       .  S
C447        F461   1.383       .  S
C447        F462   1.381       .  S
C449        F457   1.385       .  S
C449        F458   1.384       .  S
C449        F459   1.383       .  S
In463       O465   2.249       .  S
In463       O466   2.247       .  S
In463       O474   2.254       .  S
In463       O468   2.263       .  S
In463       O470   2.247       .  S
In463       O471   2.229       .  S
In463       O472   2.241       .  S
In463       O475   2.264       .  S
C464        O470   1.261       .  A
C464        O472   1.260       .  A
C464        C810   1.488       .  S
O465        C473   1.260       .  A
O466        C473   1.259       .  A
C467        O474   1.258       .  A
C467        O468   1.259       .  A
C467        C897   1.489       .  S
C469        O471   1.255       .  A
C469        O475   1.261       .  A
C469        C865   1.487       .  S
C473        C842   1.488       .  S
In476       O481   2.238       .  S
In476       O483   2.238       .  S
In476       O485   2.230   1_545  S
In476       O488   2.239   1_545  S
C477        O483   1.262       .  A
C477        O485   1.258   1_545  A
C477        C714   1.481       .  S
O478        C486   1.259       .  A
O479        C486   1.262       .  A
C480        O487   1.260       .  A
C480        C778   1.494       .  S
C482        O488   1.263       .  A
C482        C737   1.480       .  S
C486        C682   1.482       .  S
In489       O491   2.236   1_455  S
In489       O492   2.222       .  S
In489       O500   2.243   1_455  S
In489       O494   2.242   1_455  S
In489       O496   2.253       .  S
In489       O497   2.250       .  S
In489       O498   2.237       .  S
In489       O501   2.230       .  S
C490        O496   1.260       .  A
C490        O498   1.259       .  A
C490        C618   1.492       .  S
O491        C499   1.260   1_655  A
O492        C499   1.258       .  A
C493        O500   1.260       .  A
C493        O494   1.260       .  A
C493        C769   1.486       .  S
C495        O497   1.260       .  A
C495        O501   1.258       .  A
C495        C874   1.490       .  S
C499        C650   1.474       .  S
In502       O504   2.219       .  S
In502       O505   2.244   1_545  S
In502       O513   2.254       .  S
In502       O507   2.234       .  S
In502       O509   2.227   1_545  S
In502       O510   2.226   1_545  S
In502       O511   2.250       .  S
In502       O514   2.245   1_545  S
C503        O509   1.257   1_545  A
C503        O511   1.264       .  A
C503        C705   1.478       .  S
O504        C512   1.260       .  A
O505        C512   1.262   1_565  A
C506        O513   1.261       .  A
C506        O507   1.260       .  A
C506        C906   1.477       .  S
C508        O510   1.259       .  A
C508        O514   1.262       .  A
C508        C586   1.478       .  S
C512        C673   1.478       .  S
In515       O517   2.235       .  S
In515       O518   2.246       .  S
In515       O526   2.230       .  S
In515       O520   2.258       .  S
In515       O522   2.247       .  S
In515       O523   2.246       .  S
In515       O524   2.232       .  S
In515       O527   2.239       .  S
C516        O522   1.263       .  A
C516        O524   1.258       .  A
C516        C833   1.489       .  S
O517        C525   1.258       .  A
O518        C525   1.263       .  A
C519        O526   1.256       .  A
C519        O520   1.262       .  A
C519        C746   1.489       .  S
C521        O523   1.261       .  A
C521        O527   1.258       .  A
C521        C554   1.491       .  S
C525        C801   1.491       .  S
In528       O530   2.242       .  S
In528       O531   2.237   1_455  S
In528       O539   2.233       .  S
In528       O533   2.247       .  S
In528       O535   2.264       .  S
In528       O536   2.242   1_455  S
In528       O537   2.223   1_455  S
In528       O540   2.240   1_455  S
C529        O535   1.261       .  A
C529        O537   1.260   1_455  A
C529        C641   1.484       .  S
O530        C538   1.262       .  A
O531        C538   1.260   1_655  A
C532        O539   1.258       .  A
C532        O533   1.262       .  A
C532        C577   1.483       .  S
C534        O536   1.258       .  A
C534        O540   1.261       .  A
C534        C545   1.488       .  S
C538        C609   1.491       .  S
C541        C542   1.401       .  A
C541        C546   1.407       .  A
C541        H551   1.083       .  S
C542        C547   1.486       .  S
C542        C543   1.415       .  A
C543        C544   1.405       .  A
C543        C548   1.520       .  S
C544        C545   1.406       .  A
C544        H549   1.082       .  S
C545        C546   1.424       .  A
C546        C550   1.521       .  S
C547        C552   1.415       .  A
C547        C556   1.400       .  A
C548        F564   1.381       .  S
C548        F565   1.382       .  S
C548        F566   1.385       .  S
C550        F561   1.384       .  S
C550        F562   1.385       .  S
C550        F563   1.383       .  S
C552        C553   1.406       .  A
C552        C557   1.521       .  S
C553        C554   1.408       .  A
C553        H558   1.082       .  S
C554        C555   1.423       .  A
C555        C556   1.407       .  A
C555        C559   1.520       .  S
C556        H560   1.083       .  S
C557        F570   1.385       .  S
C557        F571   1.382       .  S
C557        F572   1.383       .  S
C559        F567   1.385       .  S
C559        F568   1.383       .  S
C559        F569   1.384       .  S
C573        C574   1.398       .  A
C573        C578   1.404       .  A
C573        H583   1.086       .  S
C574        C579   1.478       .  S
C574        C575   1.414       .  A
C575        C576   1.406       .  A
C575        C580   1.520       .  S
C576        C577   1.407       .  A
C576        H581   1.085       .  S
C577        C578   1.423       .  A
C578        C582   1.521       .  S
C579        C584   1.414       .  A
C579        C588   1.400       .  A
C580        F596   1.382       .  S
C580        F597   1.381       .  S
C580        F598   1.385       .  S
C582        F593   1.382       .  S
C582        F594   1.385       .  S
C582        F595   1.384       .  S
C584        C585   1.406       .  A
C584        C589   1.520       .  S
C585        C586   1.404       .  A
C585        H590   1.081       .  S
C586        C587   1.421       .  A
C587        C588   1.405       .  A
C587        C591   1.521       .  S
C588        H592   1.081       .  S
C589        F602   1.384       .  S
C589        F603   1.383       .  S
C589        F604   1.381       .  S
C591        F599   1.383       .  S
C591        F600   1.383       .  S
C591        F601   1.385       .  S
C605        C606   1.400       .  A
C605        C610   1.407       .  A
C605        H615   1.083   1_455  S
C606        C611   1.483       .  S
C606        C607   1.412       .  A
C607        C608   1.406       .  A
C607        C612   1.520       .  S
C608        C609   1.409       .  A
C608        H613   1.082       .  S
C609        C610   1.425       .  A
C610        C614   1.521   1_455  S
C611        C616   1.413       .  A
C611        C620   1.400       .  A
C612        F628   1.382       .  S
C612        F629   1.382       .  S
C612        F630   1.384       .  S
C614        F625   1.385       .  S
C614        F626   1.383       .  S
C614        F627   1.384       .  S
C616        C617   1.406       .  A
C616        C621   1.521       .  S
C617        C618   1.410       .  A
C617        H622   1.082       .  S
C618        C619   1.424       .  A
C619        C620   1.408       .  A
C619        C623   1.519   1_455  S
C620        H624   1.083   1_455  S
C621        F634   1.385       .  S
C621        F635   1.382       .  S
C621        F636   1.382       .  S
C623        F631   1.383       .  S
C623        F632   1.383       .  S
C623        F633   1.385       .  S
C637        C638   1.404       .  A
C637        C642   1.412       .  A
C637        H647   1.084       .  S
C638        C643   1.485       .  S
C638        C639   1.415       .  A
C639        C640   1.401       .  A
C639        C644   1.521   1_455  S
C640        C641   1.404       .  A
C640        H645   1.084       .  S
C641        C642   1.421       .  A
C642        C646   1.519       .  S
C643        C648   1.413   1_455  A
C643        C652   1.400       .  A
C644        F660   1.381   1_655  S
C644        F661   1.382       .  S
C644        F662   1.385       .  S
C646        F657   1.385       .  S
C646        F658   1.382       .  S
C646        F659   1.384   1_455  S
C649        C650   1.405   1_655  A
C649        H654   1.084       .  S
C651        C652   1.407       .  A
C651        C655   1.520       .  S
C652        H656   1.083       .  S
C653        F666   1.384   1_554  S
C653        F667   1.383       .  S
C655        F663   1.383       .  S
C655        F665   1.385       .  S
C669        C670   1.402       .  A
C669        C674   1.407   1_545  A
C669        H679   1.082   1_545  S
C670        C675   1.474       .  S
C670        C671   1.411       .  A
C671        C672   1.400       .  A
C671        C676   1.521       .  S
C672        C673   1.406       .  A
C672        H677   1.079       .  S
C673        C674   1.419   1_545  A
C674        C678   1.519       .  S
C675        C680   1.411       .  A
C675        C684   1.399   1_545  A
C676        F692   1.382       .  S
C676        F693   1.381       .  S
C676        F694   1.385       .  S
C678        F689   1.385       .  S
C678        F690   1.383       .  S
C678        F691   1.384   1_565  S
C680        C681   1.402       .  A
C680        C685   1.521       .  S
C681        C682   1.408       .  A
C681        H686   1.084       .  S
C682        C683   1.422   1_545  A
C683        C684   1.406       .  A
C683        C687   1.520       .  S
C684        H688   1.084       .  S
C685        F698   1.384       .  S
C685        F699   1.382       .  S
C685        F700   1.381       .  S
C687        F695   1.384       .  S
C687        F696   1.383       .  S
C687        F697   1.385       .  S
C701        C702   1.398   1_565  A
C701        C706   1.403       .  A
C701        H711   1.084       .  S
C702        C707   1.476       .  S
C702        C703   1.414       .  A
C703        C704   1.405       .  A
C703        C708   1.520       .  S
C704        C705   1.404       .  A
C704        H709   1.084       .  S
C705        C706   1.422   1_545  A
C706        C710   1.519       .  S
C707        C712   1.412       .  A
C707        C716   1.399   1_545  A
C708        F724   1.382   1_545  S
C708        F725   1.381       .  S
C708        F726   1.384       .  S
C710        F721   1.385       .  S
C710        F722   1.383       .  S
C710        F723   1.381   1_565  S
C712        C713   1.403       .  A
C712        C717   1.520       .  S
C713        C714   1.406       .  A
C713        H718   1.082       .  S
C714        C715   1.422   1_545  A
C715        C716   1.405       .  A
C715        C719   1.520       .  S
C716        H720   1.083       .  S
C717        F730   1.384       .  S
C717        F731   1.382       .  S
C717        F732   1.381       .  S
C719        F727   1.383       .  S
C719        F728   1.382       .  S
C719        F729   1.385       .  S
C733        C734   1.401       .  A
C733        C738   1.405       .  A
C734        C739   1.478       .  S
C734        C735   1.417       .  A
C735        C736   1.404       .  A
C735        C740   1.520       .  S
C736        C737   1.405       .  A
C736        H741   1.085       .  S
C737        C738   1.420       .  A
C739        C744   1.412       .  A
C739        C748   1.397       .  A
C740        F756   1.384       .  S
C740        F757   1.381       .  S
C740        F758   1.383       .  S
C742        F753   1.383       .  S
C742        F754   1.386       .  S
C742        F755   1.383   1_554  S
C744        C745   1.406       .  A
C744        C749   1.519       .  S
C745        C746   1.408       .  A
C745        H750   1.083       .  S
C746        C747   1.425       .  A
C747        C748   1.405       .  A
C747        C751   1.520       .  S
C748        H752   1.083       .  S
C749        F762   1.384       .  S
C749        F763   1.383       .  S
C749        F764   1.383       .  S
C751        F759   1.383       .  S
C751        F760   1.384       .  S
C751        F761   1.385       .  S
C765        C766   1.399       .  A
C765        C770   1.405       .  A
C765        H775   1.083       .  S
C766        C771   1.483       .  S
C766        C767   1.414       .  A
C767        C768   1.407       .  A
C767        C772   1.519       .  S
C768        C769   1.408       .  A
C768        H773   1.082       .  S
C769        C770   1.422       .  A
C770        C774   1.519       .  S
C771        C776   1.413       .  A
C771        C780   1.399       .  A
C772        F788   1.382       .  S
C772        F789   1.382   1_556  S
C772        F790   1.385       .  S
C774        F786   1.385       .  S
C774        F787   1.383       .  S
C776        C777   1.405       .  A
C776        C781   1.520   1_556  S
C777        C778   1.409       .  A
C778        C779   1.425       .  A
C779        C780   1.408       .  A
C779        C783   1.519       .  S
C780        H784   1.083       .  S
C781        F796   1.382       .  S
C783        F791   1.385       .  S
C783        F792   1.384       .  S
C783        F793   1.383       .  S
C797        C798   1.402       .  A
C797        H807   1.083       .  S
C798        C803   1.484       .  S
C798        C799   1.413   1_556  A
C799        C804   1.519       .  S
C800        C801   1.408       .  A
C800        H805   1.082       .  S
C801        C802   1.426       .  A
C802        C806   1.520       .  S
C803        C808   1.414       .  A
C803        C812   1.400       .  A
C804        F820   1.382       .  S
C804        F821   1.382   1_554  S
C804        F822   1.385       .  S
C806        F817   1.383       .  S
C806        F819   1.384       .  S
C808        C809   1.406       .  A
C808        C813   1.521       .  S
C809        C810   1.407       .  A
C809        H814   1.083       .  S
C810        C811   1.423       .  A
C811        C812   1.408       .  A
C811        C815   1.519       .  S
C812        H816   1.083       .  S
C813        F826   1.384       .  S
C813        F827   1.382       .  S
C815        F823   1.382       .  S
C815        F824   1.384       .  S
C815        F825   1.385       .  S
C829        C830   1.400       .  A
C829        C834   1.407       .  A
C829        H839   1.083       .  S
C830        C835   1.480       .  S
C830        C831   1.416       .  A
C831        C832   1.404       .  A
C831        C836   1.520       .  S
C832        C833   1.406       .  A
C832        H837   1.084       .  S
C833        C834   1.424       .  A
C834        C838   1.521       .  S
C835        C840   1.412       .  A
C835        C844   1.398       .  A
C836        F852   1.383       .  S
C836        F853   1.381       .  S
C836        F854   1.383       .  S
C838        F849   1.385       .  S
C838        F850   1.384       .  S
C838        F851   1.383       .  S
C840        C841   1.407       .  A
C840        C845   1.519       .  S
C841        C842   1.409       .  A
C841        H846   1.082       .  S
C842        C843   1.423       .  A
C843        C844   1.406       .  A
C843        C847   1.519       .  S
C844        H848   1.083       .  S
C845        F858   1.385       .  S
C845        F859   1.383       .  S
C845        F860   1.383       .  S
C847        F855   1.385       .  S
C847        F856   1.383       .  S
C847        F857   1.384       .  S
C861        C862   1.397       .  A
C861        C866   1.403       .  A
C861        H871   1.082       .  S
C862        C867   1.479       .  S
C862        C863   1.414       .  A
C863        C864   1.409       .  A
C863        C868   1.520       .  S
C864        C865   1.408       .  A
C864        H869   1.082       .  S
C865        C866   1.425       .  A
C866        C870   1.521       .  S
C867        C872   1.412       .  A
C867        C876   1.400       .  A
C868        F884   1.382       .  S
C868        F885   1.382       .  S
C868        F886   1.385       .  S
C870        F881   1.383       .  S
C870        F882   1.385       .  S
C870        F883   1.383       .  S
C872        C873   1.404       .  A
C872        C877   1.521       .  S
C873        C874   1.410       .  A
C873        H878   1.083       .  S
C874        C875   1.423       .  A
C875        C876   1.407       .  A
C875        C879   1.519       .  S
C876        H880   1.084       .  S
C877        F890   1.385       .  S
C877        F891   1.382       .  S
C877        F892   1.381       .  S
C879        F887   1.385       .  S
C879        F888   1.384       .  S
C879        F889   1.383       .  S
C893        C894   1.400       .  A
C893        C898   1.408       .  A
C893        H903   1.082       .  S
C894        C899   1.485       .  S
C894        C895   1.414       .  A
C895        C896   1.410       .  A
C895        C900   1.519       .  S
C896        C897   1.408       .  A
C896        H901   1.082       .  S
C897        C898   1.422       .  A
C898        C902   1.519       .  S
C899        C904   1.420       .  A
C899        C908   1.402       .  A
C900        F916   1.382       .  S
C900        F917   1.383       .  S
C900        F918   1.384       .  S
C902        F913   1.385       .  S
C902        F914   1.384       .  S
C902        F915   1.382       .  S
C904        C905   1.408       .  A
C904        C909   1.518       .  S
C905        C906   1.402       .  A
C905        H910   1.083       .  S
C906        C907   1.417       .  A
C907        C908   1.405       .  A
C907        C911   1.520       .  S
C908        H912   1.083       .  S
C909        F922   1.384       .  S
C909        F923   1.383       .  S
C909        F924   1.382       .  S
C911        F919   1.384       .  S
C911        F920   1.382       .  S
C911        F921   1.384       .  S
