geometry optimzed in LAMMPS
_audit_creation_date              2020-11-30 
_audit_creation_method            'lammps2cif' 
_symmetry_space_group_name_H-M    'P1' 
_symmetry_Int_Tables_number       1 
_symmetry_cell_setting            triclinic 
loop_ 
_symmetry_equiv_pos_as_xyz 
  x,y,z 
_cell_length_a                    31.28336583980084 
_cell_length_b                    28.36533239490635 
_cell_length_c                    43.39040710815141 
_cell_angle_alpha                 91.25683790245405 
_cell_angle_beta                  86.94715127224805 
_cell_angle_gamma                 90.27460039362629 
loop_ 
_atom_site_label 
_atom_site_type_symbol 
_atom_site_fract_x 
_atom_site_fract_y 
_atom_site_fract_z 
_atom_site_charge 
O1          O  0.42402956  0.11468334  0.35997352    -0.57490
C2          C  0.30974121  0.19507068  0.36524044     0.75140
O3          O  0.30137168  0.05376670  0.33069262    -0.58640
C4          C  0.43287826  0.07140483  0.36289398     0.75110
C5          C  0.33045716  0.07584140  0.42821232     0.77510
Cd6        Cd  0.34585981  0.10235782  0.36541570     1.37470
O7          O  0.34982067  0.18888842  0.36137487    -0.57480
O8          O  0.35464680  0.10959957  0.41989343    -0.56290
C9          C  0.32169412  0.06735645  0.30631415     0.77470
O10         O  0.31037572  0.05450205  0.40730466    -0.58670
O11         O  0.28698750  0.15859501  0.36967846    -0.57120
O12         O  0.40151314  0.04331825  0.36631888    -0.57110
O13         O  0.35237215  0.09572341  0.30991991    -0.56280
O14         O  0.35270815  0.18710778  0.61939104    -0.57490
C15         C  0.43756408  0.06758817  0.61845714     0.75140
O16         O  0.31726460  0.04750745  0.65984926    -0.58640
C17         C  0.31237447  0.19197120  0.62281671     0.75110
C18         C  0.33353279  0.07358225  0.55858899     0.77510
Cd19       Cd  0.35080437  0.10056801  0.62042934     1.37460
O20         O  0.42917808  0.11119591  0.62229785    -0.57480
O21         O  0.36024317  0.10509817  0.56566012    -0.56290
C22         C  0.33311955  0.07051303  0.68205902     0.77470
O23         O  0.31212639  0.05425575  0.58070894    -0.58670
O24         O  0.40596348  0.04032673  0.61511498    -0.57120
O25         O  0.29027295  0.15451563  0.62504893    -0.57110
O26         O  0.35309711  0.10807977  0.67541475    -0.56280
O27         O  0.42243590  0.96332055  0.86367906    -0.57490
C28         C  0.30763344  0.87971953  0.86816491     0.75140
O29         O  0.30163102  0.02106909  0.90798973    -0.58640
C30         C  0.43047490  0.00639209  0.86972973     0.75110
C31         C  0.33089358  0.00416939  0.80709915     0.77510
Cd32       Cd  0.34377045  0.97284535  0.86797986     1.37460
O33         O  0.34737343  0.88650182  0.87097628    -0.57480
O34         O  0.35482303  0.96996356  0.81271229    -0.56290
C35         C  0.32120799  0.00289159  0.92976527     0.77470
O36         O  0.30983312  0.02319210  0.82994375    -0.58670
O37         O  0.28504680  0.91607754  0.86505704    -0.57120
O38         O  0.39841579  0.03302952  0.87452045    -0.57110
O39         O  0.34775959  0.97053503  0.92254579    -0.56280
O40         O  0.42029186  0.96036336  0.11215366    -0.57490
C41         C  0.30750058  0.87715508  0.11993936     0.75140
O42         O  0.29997858  0.02008487  0.15762824    -0.58640
C43         C  0.42985162  0.00243207  0.11969804     0.75110
C44         C  0.32356916  0.00370191  0.05898698     0.77510
Cd45       Cd  0.34209789  0.97126885  0.11908353     1.37470
O46         O  0.34757843  0.88438628  0.11850391    -0.57480
O47         O  0.35165576  0.97332262  0.06381999    -0.56290
C48         C  0.31754508  0.00257063  0.18050630     0.77470
O49         O  0.30204921  0.01997689  0.08245311    -0.58670
O50         O  0.28394072  0.91332692  0.12094222    -0.57120
O51         O  0.39870980  0.02932608  0.12719417    -0.57110
O52         O  0.34470633  0.97029224  0.17455295    -0.56280
O53         O  0.61404913  0.95565097  0.36794591    -0.57490
C54         C  0.72613880  0.87338570  0.35860633     0.75140
O55         O  0.72774761  0.02151258  0.32510544    -0.58640
C56         C  0.60539934  0.99910022  0.36589961     0.75110
C57         C  0.71587928  0.98755015  0.42448452     0.77510
Cd58       Cd  0.69231299  0.96706437  0.36299830     1.37470
O59         O  0.68651717  0.88098767  0.35625976    -0.57480
O60         O  0.68438271  0.96190953  0.41782518    -0.56290
C61         C  0.71231718  0.99959715  0.30231850     0.77470
O62         O  0.73632914  0.00772737  0.40230962    -0.58670
O63         O  0.74964208  0.90927054  0.36245167    -0.57120
O64         O  0.63697004  0.02705266  0.36329841    -0.57110
O65         O  0.69205087  0.96183142  0.30789401    -0.56280
O66         O  0.69945641  0.88033178  0.62240032    -0.57490
C67         C  0.61150335  0.99696484  0.61810454     0.75140
O68         O  0.73150765  0.02340468  0.65533927    -0.58640
C69         C  0.73986193  0.87710497  0.62327025     0.75110
C70         C  0.72107137  0.98410447  0.55515040     0.77510
Cd71       Cd  0.69882664  0.96689864  0.61871228     1.37460
O72         O  0.62094476  0.95340046  0.61722399    -0.57480
O73         O  0.69286307  0.95500691  0.56454223    -0.56290
C74         C  0.71156698  0.00555554  0.67866392     0.77470
O75         O  0.73986036  0.00791990  0.57568131    -0.58670
O76         O  0.64247804  0.02566131  0.61960448    -0.57120
O77         O  0.76075850  0.91544408  0.62259440    -0.57110
O78         O  0.68860022  0.96955556  0.67386559    -0.56280
O79         O  0.61596435  0.11777551  0.87696541    -0.57490
C80         C  0.73009826  0.19740297  0.86548145     0.75140
O81         O  0.73664119  0.05629106  0.90244316    -0.58640
C82         C  0.60547938  0.07509315  0.87216175     0.75110
C83         C  0.70982671  0.07434494  0.80488935     0.77510
Cd84       Cd  0.69364760  0.10462757  0.86761002     1.37470
O85         O  0.68984045  0.19125820  0.86731119    -0.57480
O86         O  0.68944192  0.11149832  0.81265358    -0.56290
C87         C  0.72163489  0.07815580  0.92647603     0.77470
O88         O  0.72630480  0.05192528  0.82634634    -0.58670
O89         O  0.75305646  0.16068464  0.86426634    -0.57120
O90         O  0.63586617  0.04664493  0.86590716    -0.57110
O91         O  0.69412399  0.10967652  0.92275511    -0.56280
O92         O  0.69058742  0.18405042  0.11928846    -0.57490
C93         C  0.60660619  0.06748900  0.11725661     0.75140
O94         O  0.73635476  0.05098778  0.07692140    -0.58640
C95         C  0.73081556  0.19018091  0.11916655     0.75110
C96         C  0.71178842  0.06479922  0.17752753     0.77510
Cd97       Cd  0.69465256  0.09751060  0.11768645     1.37460
O98         O  0.61667377  0.10929298  0.12498478    -0.57480
O99         O  0.69066201  0.10156144  0.17295251    -0.56290
C100        C  0.72270781  0.07577052  0.05545327     0.77470
O101        O  0.72857192  0.04339240  0.15387557    -0.58670
O102        O  0.63732992  0.04039980  0.10908498    -0.57120
O103        O  0.75375330  0.15346927  0.11866735    -0.57110
O104        O  0.69681234  0.10857559  0.06318892    -0.56280
O105        O  0.84274758  0.68483846  0.36688543    -0.57490
C106        C  0.93066449  0.57111411  0.36821509     0.75140
O107        O  0.80400512  0.55044475  0.40890059    -0.58640
C108        C  0.80344451  0.68843534  0.36147293     0.75110
C109        C  0.82802916  0.55710098  0.30860371     0.77510
Cd110      Cd  0.84255931  0.59803434  0.36773826     1.37460
O111        O  0.92068776  0.61403974  0.36517661    -0.57480
O112        O  0.85557447  0.58902205  0.31281458    -0.56290
C113        C  0.81644689  0.57709133  0.43060657     0.77470
O114        O  0.80529425  0.54391837  0.33203777    -0.58670
O115        O  0.90010753  0.54190118  0.37111427    -0.57120
O116        O  0.78289375  0.65020775  0.35853754    -0.57110
O117        O  0.83946834  0.61202634  0.42281846    -0.56280
O118        O  0.92717255  0.60906615  0.61828478    -0.57490
C119        C  0.81728534  0.69210527  0.62306809     0.75140
O120        O  0.80271542  0.55391161  0.58357849    -0.58640
C121        C  0.93561634  0.56627355  0.62331273     0.75110
C122        C  0.82007780  0.57238400  0.68276410     0.77510
Cd123      Cd  0.84824175  0.59729091  0.62097301     1.37460
O124        O  0.85709687  0.68381576  0.62408290    -0.57480
O125        O  0.82643123  0.61420716  0.67436528    -0.56290
C126        C  0.82268031  0.57162142  0.56031672     0.77470
O127        O  0.82255645  0.54114481  0.66133989    -0.58670
O128        O  0.79271773  0.65671606  0.62071663    -0.57120
O129        O  0.90384705  0.53897404  0.62719613    -0.57110
O130        O  0.85445399  0.59767165  0.56545631    -0.56280
O131        O  0.84887024  0.38851648  0.86299599    -0.57490
C132        C  0.93459321  0.50375863  0.86367136     0.75140
O133        O  0.80706455  0.53206329  0.83406150    -0.58640
C134        C  0.80861567  0.38258653  0.86517683     0.75110
C135        C  0.82796168  0.50131379  0.92895689     0.77510
Cd136      Cd  0.84565210  0.47542262  0.86553161     1.37470
O137        O  0.92373644  0.46229981  0.85564284    -0.57480
O138        O  0.85291604  0.46831605  0.91990320    -0.56290
C139        C  0.82008768  0.51305789  0.80852696     0.77470
O140        O  0.80806043  0.52215324  0.90843995    -0.58670
O141        O  0.90430544  0.53153525  0.87158835    -0.57120
O142        O  0.78594891  0.41948005  0.86733692    -0.57110
O143        O  0.84331401  0.47690760  0.80977881    -0.56280
O144        O  0.92692928  0.45292723  0.10926039    -0.57490
C145        C  0.81092599  0.37434003  0.11784019     0.75140
O146        O  0.82026072  0.51978639  0.16048389    -0.58640
C147        C  0.93764520  0.49407995  0.11804994     0.75110
C148        C  0.83105493  0.49918337  0.05882988     0.77510
Cd149      Cd  0.84916494  0.46596844  0.11858631     1.37470
O150        O  0.85129560  0.37950496  0.11734039    -0.57480
O151        O  0.85834825  0.46796710  0.06372585    -0.56290
C152        C  0.82989508  0.49217299  0.18175663     0.77470
O153        O  0.80954277  0.51585634  0.08225641    -0.58670
O154        O  0.78866988  0.41159818  0.11834960    -0.57120
O155        O  0.90744258  0.52072336  0.12789002    -0.57110
O156        O  0.84442772  0.45220206  0.17319091    -0.56280
O157        O  0.11290221  0.45610094  0.36700093    -0.57490
C158        C  0.23041809  0.37888089  0.36437065     0.75140
O159        O  0.22572837  0.52207900  0.32750185    -0.58640
C160        C  0.10372948  0.49968497  0.36742627     0.75110
C161        C  0.20963155  0.48898810  0.43043595     0.77510
Cd162      Cd  0.19185145  0.46940599  0.36722185     1.37470
O163        O  0.18992052  0.38337716  0.36701138    -0.57480
O164        O  0.19513455  0.45060006  0.42006071    -0.56290
C165        C  0.21463604  0.49520257  0.30538936     0.77470
O166        O  0.22067822  0.51964572  0.41051618    -0.58670
O167        O  0.25252411  0.41646537  0.36228087    -0.57120
O168        O  0.13482612  0.52819022  0.36832485    -0.57110
O169        O  0.19792312  0.45614608  0.31271291    -0.56280
O170        O  0.11989044  0.45471763  0.63314414    -0.57490
C171        C  0.23346506  0.37646309  0.62734546     0.75140
O172        O  0.22341008  0.52197027  0.58291280    -0.58640
C173        C  0.10945622  0.49696536  0.62820729     0.75110
C174        C  0.22514612  0.50387641  0.68460041     0.77510
Cd175      Cd  0.19826693  0.46936923  0.62637261     1.37470
O176        O  0.19332887  0.38301636  0.63057051    -0.57480
O177        O  0.19272270  0.47792423  0.68140323    -0.56290
C178        C  0.21504226  0.49041986  0.56284427     0.77470
O179        O  0.24590431  0.51594009  0.66002754    -0.58670
O180        O  0.25671781  0.41286518  0.62401263    -0.57120
O181        O  0.13995715  0.52541167  0.62245569    -0.57110
O182        O  0.20445875  0.45022415  0.57274202    -0.56280
O183        O  0.12099064  0.60818773  0.87849335    -0.57490
C184        C  0.23284701  0.69231319  0.86991630     0.75140
O185        O  0.24087097  0.54980324  0.90611265    -0.58640
C186        C  0.11132949  0.56664104  0.86989982     0.75110
C187        C  0.22781945  0.56691267  0.81007126     0.77510
Cd188      Cd  0.19917419  0.59778295  0.87076571     1.37460
O189        O  0.19349309  0.68435927  0.86626822    -0.57480
O190        O  0.20151524  0.60024751  0.81511365    -0.56290
C191        C  0.22226452  0.56800585  0.93016783     0.77470
O192        O  0.24273694  0.54828316  0.83356681    -0.58670
O193        O  0.25580754  0.65677930  0.87427243    -0.57120
O194        O  0.14240169  0.53971613  0.86227678    -0.57110
O195        O  0.19300821  0.59753173  0.92637624    -0.56280
O196        O  0.12170801  0.60299387  0.12676356    -0.57490
C197        C  0.23381537  0.68938782  0.12245743     0.75140
O198        O  0.23973312  0.54532838  0.15660939    -0.58640
C199        C  0.11352665  0.56180040  0.11663819     0.75110
C200        C  0.22740449  0.57027575  0.05893535     0.77510
Cd201      Cd  0.20031186  0.59506208  0.12076506     1.37470
O202        O  0.19378798  0.68164428  0.12335901    -0.57480
O203        O  0.20481843  0.60610552  0.06614798    -0.56290
C204        C  0.21707191  0.55954989  0.18011878     0.77470
O205        O  0.23950749  0.54523416  0.08078297    -0.58670
O206        O  0.25783589  0.65352227  0.12130264    -0.57120
O207        O  0.14558561  0.53692828  0.10816323    -0.57110
O208        O  0.18943134  0.59072862  0.17594299    -0.56280
C209        C  0.21160654  0.52363244  0.97885531    -0.01520
C210        C  0.23441661  0.55781505  0.96155960     0.08160
C211        C  0.26180744  0.58961047  0.97627847    -0.01630
C212        C  0.26318352  0.59025089  0.00859797    -0.01640
C213        C  0.23739866  0.55887360  0.02616128     0.08290
C214        C  0.21318735  0.52403657  0.01123500    -0.01830
Br215      Br  0.17803965  0.48087318  0.03534424    -0.00380
Br216      Br  0.17500273  0.47950908  0.95835995    -0.00380
Br217      Br  0.29744495  0.63676828  0.02917834    -0.00410
Br218      Br  0.29406917  0.63538707  0.95227150    -0.00400
C219        C  0.23436710  0.48584643  0.73981221    -0.01520
C220        C  0.23669283  0.51898825  0.71590804     0.08160
C221        C  0.24390132  0.56697453  0.72308945    -0.01630
C222        C  0.24489157  0.58216678  0.75415997    -0.01640
C223        C  0.23808406  0.54961715  0.77815635     0.08290
C224        C  0.23459605  0.50109618  0.77084716    -0.01830
Br225      Br  0.22505824  0.45549964  0.80300373    -0.00380
Br226      Br  0.22952245  0.41917446  0.73024263    -0.00450
Br227      Br  0.25450326  0.64804261  0.76376010    -0.00410
Br228      Br  0.24801377  0.61289368  0.69085322    -0.00400
C229        C  0.18296721  0.49911401  0.25382329    -0.01520
C230        C  0.21781671  0.50906615  0.27257638     0.08160
C231        C  0.25418067  0.53291610  0.25981131    -0.01630
C232        C  0.25517260  0.54762075  0.22888430    -0.01640
C233        C  0.21969671  0.53916725  0.21087723     0.08290
C234        C  0.18382289  0.51477921  0.22337671    -0.01830
Br235      Br  0.13491885  0.50360469  0.19876400    -0.00380
Br236      Br  0.13215482  0.46621854  0.26952836    -0.00450
Br237      Br  0.30397387  0.58151030  0.21158461    -0.00410
Br238      Br  0.30315649  0.54437235  0.28412275    -0.00400
C239        C  0.17538115  0.48025037  0.48314779    -0.01520
C240        C  0.21048415  0.49675545  0.46440619     0.08160
C241        C  0.24575883  0.51767030  0.47869387    -0.01630
C242        C  0.24720613  0.51826594  0.51132001    -0.01640
C243        C  0.21289611  0.49922137  0.52950963     0.08290
C244        C  0.17600598  0.48328501  0.51528292    -0.01830
Br245      Br  0.12505463  0.46645600  0.54002220    -0.00380
Br246      Br  0.12572601  0.45178357  0.46573304    -0.00450
Br247      Br  0.29671094  0.54274071  0.53091092    -0.00410
Br248      Br  0.29348281  0.54188211  0.45388667    -0.00400
C249        C  0.99278484  0.55806130  0.10908961    -0.01520
C250        C  0.98287133  0.51075500  0.11666896     0.08160
C251        C  0.01643649  0.47967090  0.12268869    -0.01630
C252        C  0.05925703  0.49555867  0.12117018    -0.01640
C253        C  0.06894166  0.54350883  0.11514977     0.08290
C254        C  0.03547323  0.57422078  0.10829023    -0.01830
Br255      Br  0.04791709  0.63787711  0.09517780    -0.00380
Br256      Br  0.94854597  0.60144015  0.09851782    -0.00450
Br257      Br  0.10385938  0.45043026  0.12777343    -0.00410
Br258      Br  0.00413248  0.41585287  0.13550150    -0.00400
C259        C  0.99228741  0.56523759  0.85542866    -0.01520
C260        C  0.98012329  0.51918896  0.86440970     0.08160
C261        C  0.01138506  0.48886498  0.87540515    -0.01630
C262        C  0.05411229  0.50434408  0.87731836    -0.01640
C263        C  0.06617081  0.55042811  0.86836052     0.08290
C264        C  0.03497885  0.58065083  0.85724813    -0.01830
Br265      Br  0.05070090  0.64264943  0.84255474    -0.00380
Br266      Br  0.95127292  0.60751846  0.83922364    -0.00450
Br267      Br  0.09529543  0.46253377  0.89394468    -0.00410
Br268      Br  0.99566306  0.42690134  0.89004567    -0.00400
C269        C  0.78627190  0.50883287  0.97998538    -0.01520
C270        C  0.82471136  0.51481922  0.96200742     0.08160
C271        C  0.86276775  0.52602030  0.97652930    -0.01630
C272        C  0.86355948  0.52566671  0.00879589    -0.01640
C273        C  0.82622482  0.51430044  0.02683345     0.08290
C274        C  0.78700685  0.50857185  0.01252013    -0.01830
Br275      Br  0.73540522  0.49516485  0.03705881    -0.00380
Br276      Br  0.73371073  0.49631425  0.96003962    -0.00450
Br277      Br  0.91677382  0.53815177  0.02814857    -0.00410
Br278      Br  0.91463422  0.53963467  0.95199508    -0.00400
C279        C  0.05264380  0.55699650  0.64262689    -0.01520
C280        C  0.06421110  0.51296109  0.62872063     0.08160
C281        C  0.03289891  0.48593802  0.61392979    -0.01630
C282        C  0.99144156  0.50415150  0.61126705    -0.01640
C283        C  0.98006329  0.54850573  0.62478131     0.08290
C284        C  0.01075027  0.57448674  0.64087190    -0.01830
Br285      Br  0.99514067  0.63297436  0.66218846    -0.00380
Br286      Br  0.09321593  0.59234915  0.66618199    -0.00450
Br287      Br  0.95138735  0.46918064  0.58700369    -0.00410
Br288      Br  0.04629473  0.42413551  0.59652089    -0.00400
C289        C  0.82829325  0.57682994  0.77023975    -0.01520
C290        C  0.81111467  0.53270265  0.77834208     0.08160
C291        C  0.79162513  0.50441428  0.75598547    -0.01630
C292        C  0.79141399  0.51898367  0.72513241    -0.01640
C293        C  0.81294460  0.56092941  0.71607167     0.08290
C294        C  0.83066647  0.59038395  0.73918559    -0.01830
Br295      Br  0.86288178  0.64708268  0.72919500    -0.00380
Br296      Br  0.85170661  0.61734850  0.80152966    -0.00450
Br297      Br  0.76082643  0.48124578  0.69589893    -0.00410
Br298      Br  0.76515978  0.44546743  0.76794125    -0.00400
C299        C  0.98720428  0.52368577  0.39134627    -0.01520
C300        C  0.97552984  0.55500434  0.36848837     0.08160
C301        C  0.00600931  0.56790848  0.34501895    -0.01630
C302        C  0.04806034  0.55014121  0.34483120    -0.01640
C303        C  0.05916846  0.51716721  0.36701446     0.08290
C304        C  0.02812751  0.50328145  0.38979865    -0.01830
Br305      Br  0.04115546  0.45684724  0.41944775    -0.00380
Br306      Br  0.94828837  0.51143243  0.42636217    -0.00450
Br307      Br  0.08971218  0.56945442  0.31311518    -0.00410
Br308      Br  0.98968757  0.60751895  0.31199939    -0.00400
C309        C  0.79114306  0.54785697  0.25906554    -0.01520
C310        C  0.82470023  0.53564611  0.27766122     0.08160
C311        C  0.85877900  0.50785101  0.26530501    -0.01630
C312        C  0.86027563  0.49351204  0.23407465    -0.01640
C313        C  0.82686406  0.50608572  0.21499536     0.08290
C314        C  0.79195469  0.53282254  0.22782305    -0.01830
Br315      Br  0.74483142  0.54856698  0.20307085    -0.00380
Br316      Br  0.74542271  0.58743695  0.27613105    -0.00450
Br317      Br  0.91067189  0.46036643  0.21748114    -0.00410
Br318      Br  0.90415933  0.49031231  0.29138237    -0.00400
C319        C  0.81925890  0.52737424  0.47775708    -0.01520
C320        C  0.80595899  0.56895301  0.46374374     0.08160
C321        C  0.78998818  0.60687739  0.48246408    -0.01630
C322        C  0.79129026  0.60519402  0.51470803    -0.01640
C323        C  0.80902807  0.56588875  0.52848616     0.08290
C324        C  0.82137844  0.52615434  0.51017828    -0.01830
Br325      Br  0.84516324  0.47226087  0.52934889    -0.00380
Br326      Br  0.83859097  0.47396762  0.45264237    -0.00450
Br327      Br  0.77172698  0.65843790  0.54012361    -0.00410
Br328      Br  0.76819869  0.66245172  0.46392692    -0.00400
C329        C  0.75805301  0.31627256  0.09767400    -0.01520
C330        C  0.79053340  0.32719120  0.11809930     0.08160
C331        C  0.80269822  0.29330584  0.13927818    -0.01630
C332        C  0.78270170  0.24874814  0.13990859    -0.01640
C333        C  0.75040766  0.23772385  0.11935247     0.08290
C334        C  0.73801889  0.27172438  0.09832212    -0.01830
Br335      Br  0.69526174  0.25671884  0.06904448    -0.00380
Br336      Br  0.74247797  0.36124206  0.06740930    -0.00450
Br337      Br  0.79812070  0.20384166  0.17028703    -0.00410
Br338      Br  0.84511166  0.30853215  0.16877751    -0.00400
C339        C  0.80156512  0.30088604  0.84255724    -0.01520
C340        C  0.78878978  0.33507359  0.86529499     0.08160
C341        C  0.75636547  0.32399595  0.88792524    -0.01630
C342        C  0.73680602  0.27918164  0.88776570    -0.01640
C343        C  0.74961399  0.24501127  0.86504904     0.08290
C344        C  0.78207785  0.25601005  0.84245784    -0.01830
Br345      Br  0.79848241  0.21048300  0.81023118    -0.00380
Br346      Br  0.84414553  0.31606418  0.81037497    -0.00450
Br347      Br  0.69418030  0.26395253  0.91993448    -0.00410
Br348      Br  0.74027266  0.36909798  0.92047281    -0.00400
C349        C  0.75402670  0.10701784  0.97407506    -0.01520
C350        C  0.73521086  0.06947668  0.95781613     0.08160
C351        C  0.72094868  0.02902125  0.97366917    -0.01630
C352        C  0.72104747  0.02850109  0.00618119    -0.01640
C353        C  0.73561006  0.06838422  0.02257855     0.08290
C354        C  0.75431885  0.10642458  0.00639277    -0.01830
Br355      Br  0.77754283  0.15939758  0.02881282    -0.00380
Br356      Br  0.77638326  0.16105063  0.95207454    -0.00450
Br357      Br  0.69639908  0.97591498  0.02835538    -0.00410
Br358      Br  0.69678276  0.97690216  0.95119082    -0.00400
C359        C  0.74531398  0.79621858  0.64508276    -0.01520
C360        C  0.76161694  0.83085126  0.62467966     0.08160
C361        C  0.79843839  0.82072430  0.60531137    -0.01630
C362        C  0.81687420  0.77546165  0.60489717    -0.01640
C363        C  0.79973387  0.74052150  0.62464027     0.08290
C364        C  0.76449688  0.75140784  0.64522130    -0.01830
Br365      Br  0.74353155  0.70563749  0.67479680    -0.00380
Br366      Br  0.69824888  0.81077258  0.67435764    -0.00450
Br367      Br  0.86367540  0.76047379  0.57549948    -0.00410
Br368      Br  0.82335303  0.86784122  0.57828259    -0.00400
C369        C  0.67294550  0.05303582  0.75711243    -0.01520
C370        C  0.71154893  0.05727051  0.77242768     0.08160
C371        C  0.75077074  0.04611622  0.75642170    -0.01630
C372        C  0.75129637  0.03041706  0.72529579    -0.01640
C373        C  0.71265221  0.02616086  0.71014077     0.08290
C374        C  0.67359203  0.03817478  0.72602943    -0.01830
Br375      Br  0.62061007  0.03556840  0.70494970    -0.00380
Br376      Br  0.61838376  0.06456664  0.77910213    -0.00450
Br377      Br  0.80457504  0.01267471  0.70389649    -0.00410
Br378      Br  0.80375338  0.05348812  0.77680384    -0.00400
C379        C  0.72297200  0.78824330  0.37340319    -0.01520
C380        C  0.74432578  0.82515395  0.35747220     0.08160
C381        C  0.78410539  0.81621769  0.34145714    -0.01630
C382        C  0.80321735  0.77145906  0.34250295    -0.01640
C383        C  0.78240838  0.73489503  0.35909895     0.08290
C384        C  0.74158291  0.74316108  0.37378621    -0.01830
Br385      Br  0.71124422  0.69365733  0.39583499    -0.00380
Br386      Br  0.66952739  0.79964926  0.39683301    -0.00450
Br387      Br  0.85696204  0.75988593  0.31956748    -0.00410
Br388      Br  0.81187487  0.86445980  0.31662223    -0.00400
C389        C  0.67481737  0.02600258  0.25707178    -0.01520
C390        C  0.71390479  0.01820558  0.27084474     0.08160
C391        C  0.75293799  0.02558439  0.25386511    -0.01630
C392        C  0.75275941  0.04010615  0.22293481    -0.01640
C393        C  0.71352962  0.04704093  0.20910805     0.08290
C394        C  0.67459807  0.03984388  0.22630105    -0.01830
Br395      Br  0.62034135  0.04730123  0.20752373    -0.00380
Br396      Br  0.62101559  0.01976432  0.28076284    -0.00450
Br397      Br  0.80593969  0.05237990  0.20000014    -0.00410
Br398      Br  0.80628764  0.01459292  0.27270392    -0.00400
C399        C  0.72706932  0.03175727  0.50673260    -0.01520
C400        C  0.73074578  0.98822531  0.52157453     0.08160
C401        C  0.73693244  0.94643992  0.50362856    -0.01630
C402        C  0.73635799  0.94762708  0.47138656    -0.01640
C403        C  0.72841768  0.99026909  0.45674562     0.08290
C404        C  0.72559358  0.03270086  0.47423779    -0.01830
Br405      Br  0.71544037  0.09110487  0.45400867    -0.00380
Br406      Br  0.71921397  0.08923132  0.53086897    -0.00450
Br407      Br  0.74474433  0.89000610  0.44712116    -0.00410
Br408      Br  0.74385643  0.88649815  0.52305585    -0.00400
C409        C  0.25506136  0.81710285  0.10139386    -0.01520
C410        C  0.28885525  0.82904196  0.12050150     0.08160
C411        C  0.30402592  0.79517313  0.14058837    -0.01630
C412        C  0.28562409  0.74976888  0.14152747    -0.01640
C413        C  0.25192266  0.73776806  0.12235580     0.08290
C414        C  0.23667370  0.77169156  0.10231949    -0.01830
Br415      Br  0.19226157  0.75548790  0.07458005    -0.00380
Br416      Br  0.23532984  0.86189739  0.07240244    -0.00450
Br417      Br  0.30534997  0.70498217  0.17049599    -0.00410
Br418      Br  0.34852424  0.81142213  0.16822909    -0.00400
C419        C  0.48577947  0.06558833  0.10992179    -0.01520
C420        C  0.47496551  0.01944860  0.11962500     0.08160
C421        C  0.50762425  0.98960137  0.12914076    -0.01630
C422        C  0.55053033  0.00515694  0.12826111    -0.01640
C423        C  0.56140160  0.05091007  0.11794415     0.08290
C424        C  0.52876277  0.08086132  0.10861955    -0.01830
Br425      Br  0.54278544  0.14202579  0.09182830    -0.00380
Br426      Br  0.44244120  0.10860955  0.09748726    -0.00450
Br427      Br  0.59374797  0.96364845  0.14271716    -0.00410
Br428      Br  0.49374229  0.92831923  0.14579314    -0.00400
C429        C  0.24936784  0.82344158  0.88552334    -0.01520
C430        C  0.28839678  0.83181480  0.86851495     0.08160
C431        C  0.30878064  0.79425259  0.85174011    -0.01630
C432        C  0.29056695  0.74875971  0.85219650    -0.01640
C433        C  0.25145141  0.74045269  0.86908075     0.08290
C434        C  0.23089389  0.77803920  0.88567327    -0.01830
Br435      Br  0.17867994  0.76708511  0.91037683    -0.00380
Br436      Br  0.22207669  0.87325462  0.91039417    -0.00450
Br437      Br  0.31877442  0.69842400  0.82833914    -0.00410
Br438      Br  0.36054906  0.80516116  0.82649425    -0.00400
C439        C  0.50639841  0.99807768  0.88515659    -0.01520
C440        C  0.47489511  0.02488048  0.87135738     0.08160
C441        C  0.48595029  0.06988159  0.85972735    -0.01630
C442        C  0.52850380  0.08633378  0.86006642    -0.01640
C443        C  0.56018696  0.05897156  0.87318010     0.08290
C444        C  0.54866790  0.01517628  0.88626573    -0.01830
Br445      Br  0.59003404  0.97916687  0.90740885    -0.00380
Br446      Br  0.49146451  0.93919061  0.90473926    -0.00450
Br447      Br  0.54342001  0.14522619  0.84044811    -0.00410
Br448      Br  0.44361920  0.10958240  0.84242889    -0.00400
C449        C  0.35290096  0.03404085  0.97691187    -0.01520
C450        C  0.31603820  0.01865442  0.96231254     0.08160
C451        C  0.27828633  0.00876701  0.98019335    -0.01630
C452        C  0.27901439  0.00885787  0.01272056    -0.01640
C453        C  0.31763840  0.01844308  0.02708176     0.08290
C454        C  0.35383232  0.03354289  0.00916269    -0.01830
Br455      Br  0.40596068  0.05044203  0.02860751    -0.00380
Br456      Br  0.40336017  0.05276815  0.95244487    -0.00450
Br457      Br  0.22873681  0.99050667  0.03720287    -0.00410
Br458      Br  0.22722902  0.99025996  0.96008086    -0.00400
C459        C  0.30788676  0.27533228  0.64323095    -0.01520
C460        C  0.29188800  0.23901191  0.62424032     0.08160
C461        C  0.25587208  0.24764720  0.60688508    -0.01630
C462        C  0.23620267  0.29227294  0.60837810    -0.01640
C463        C  0.25258711  0.32877762  0.62704767     0.08290
C464        C  0.28850690  0.32008500  0.64447476    -0.01830
Br465      Br  0.31046586  0.36878246  0.67124762    -0.00380
Br466      Br  0.35495190  0.26338355  0.66906476    -0.00450
Br467      Br  0.18847274  0.30391350  0.58308589    -0.00410
Br468      Br  0.23476190  0.19941993  0.57938047    -0.00400
C469        C  0.53327423  0.99098033  0.63444410    -0.01520
C470        C  0.56671202  0.01399729  0.61746722     0.08160
C471        C  0.55728329  0.05414844  0.60026209    -0.01630
C472        C  0.51524295  0.07189186  0.60084636    -0.01640
C473        C  0.48189477  0.04902404  0.61794255     0.08290
C474        C  0.49096952  0.00773778  0.63411464    -0.01830
Br475      Br  0.44597980  0.97404110  0.65676800    -0.00380
Br476      Br  0.54527133  0.93814626  0.66002726    -0.00450
Br477      Br  0.50314394  0.12587063  0.57631622    -0.00410
Br478      Br  0.60115954  0.08377596  0.57411791    -0.00400
C479        C  0.29162919  0.02512446  0.76013627    -0.01520
C480        C  0.33014998  0.02201571  0.77542194     0.08160
C481        C  0.36920271  0.03459974  0.75995315    -0.01630
C482        C  0.36968622  0.05150392  0.72980292    -0.01640
C483        C  0.33130814  0.05367464  0.71411358     0.08290
C484        C  0.29226562  0.04033085  0.72933816    -0.01830
Br485      Br  0.23949605  0.04488796  0.70859507    -0.00380
Br486      Br  0.23841139  0.00625820  0.78082180    -0.00450
Br487      Br  0.42382225  0.07075639  0.71014709    -0.00410
Br488      Br  0.42269380  0.02909300  0.77997508    -0.00400
C489        C  0.25482258  0.24984461  0.34627282    -0.01520
C490        C  0.29015272  0.24237557  0.36451988     0.08160
C491        C  0.30599504  0.27994924  0.38250163    -0.01630
C492        C  0.28634677  0.32451768  0.38253778    -0.01640
C493        C  0.25111046  0.33204973  0.36416923     0.08290
C494        C  0.23563728  0.29460184  0.34587523    -0.01830
Br495      Br  0.18959857  0.30489946  0.31881688    -0.00380
Br496      Br  0.23344697  0.19936011  0.32064520    -0.00450
Br497      Br  0.30625808  0.37417741  0.40953233    -0.00410
Br498      Br  0.35297768  0.26986458  0.40873660    -0.00400
C499        C  0.54914613  0.05853400  0.38252318    -0.01520
C500        C  0.56086832  0.01674800  0.36586329     0.08160
C501        C  0.53050415  0.99350046  0.34786190    -0.01630
C502        C  0.48912555  0.01226230  0.34618430    -0.01640
C503        C  0.47742386  0.05397405  0.36287129     0.08290
C504        C  0.50766457  0.07711874  0.38097210    -0.01830
Br505      Br  0.49200393  0.13309020  0.40512718    -0.00380
Br506      Br  0.58884305  0.08912704  0.40928033    -0.00450
Br507      Br  0.44938173  0.98198384  0.31930362    -0.00410
Br508      Br  0.54555091  0.93689116  0.32416849    -0.00400
C509        C  0.31076524  0.06843164  0.21986996    -0.01520
C510        C  0.30896017  0.01973094  0.21270049     0.08160
C511        C  0.30493381  0.98710383  0.23685659    -0.01630
C512        C  0.30668381  0.00265827  0.26782908    -0.01640
C513        C  0.31146036  0.05113076  0.27486271     0.08290
C514        C  0.31153719  0.08404300  0.25084423    -0.01830
Br515      Br  0.31347917  0.15097734  0.26012901    -0.00380
Br516      Br  0.31669005  0.11406010  0.18745050    -0.00450
Br517      Br  0.30688156  0.95677971  0.30005317    -0.00410
Br518      Br  0.29747356  0.92070763  0.22755750    -0.00400
C519        C  0.28933773  0.06652046  0.47908539    -0.01520
C520        C  0.32788265  0.06228939  0.46089552     0.08160
C521        C  0.36621464  0.05207226  0.47500301    -0.01630
C522        C  0.36694213  0.05126009  0.50728715    -0.01640
C523        C  0.32932230  0.06074019  0.52571072     0.08290
C524        C  0.29002810  0.06565142  0.51159544    -0.01830
Br525      Br  0.23800669  0.07575279  0.53661456    -0.00380
Br526      Br  0.23653783  0.07817926  0.45966249    -0.00450
Br527      Br  0.42010015  0.03865441  0.52635310    -0.00410
Br528      Br  0.41831885  0.04074163  0.45000783    -0.00400
loop_ 
_geom_bond_atom_site_label_1 
_geom_bond_atom_site_label_2 
_geom_bond_distance 
_geom_bond_site_symmetry_2 
_ccdc_geom_bond_type 
O1            C4   1.270       .  A
O1           Cd6   2.468       .  S
C2           O11   1.265       .  A
C2            O7   1.269       .  A
C2          C490   1.479       .  S
O3            C9   1.271       .  A
O3           Cd6   2.494       .  S
C4           O12   1.266       .  A
C4          C503   1.481       .  S
C5           O10   1.272       .  A
C5            O8   1.265       .  A
C5          C520   1.475       .  S
Cd6          O13   2.409       .  S
Cd6          O12   2.424       .  S
Cd6          O11   2.439       .  S
Cd6           O7   2.467       .  S
Cd6          O10   2.501       .  S
Cd6           O8   2.398       .  S
C9           O13   1.263       .  A
C9          C513   1.481       .  S
O14          C17   1.270       .  A
O14         Cd19   2.457       .  S
C15          O24   1.265       .  A
C15          O20   1.271       .  A
C15         C473   1.485       .  S
O16          C22   1.273       .  A
O16         Cd19   2.490       .  S
C17          O25   1.267       .  A
C17         C460   1.482       .  S
C18          O23   1.273       .  A
C18          O21   1.265       .  A
C18         C523   1.477       .  S
Cd19         O26   2.396       .  S
Cd19         O25   2.438       .  S
Cd19         O24   2.433       .  S
Cd19         O20   2.474       .  S
Cd19         O23   2.504       .  S
Cd19         O21   2.385       .  S
C22          O26   1.264       .  A
C22         C483   1.479       .  S
O27          C30   1.271   1_565  A
O27         Cd32   2.474       .  S
C28          O37   1.267       .  A
C28          O33   1.269       .  A
C28         C430   1.484       .  S
O29          C35   1.273       .  A
O29         Cd32   2.508   1_545  S
C30          O38   1.264       .  A
C30         C440   1.488       .  S
C31          O36   1.272       .  A
C31          O34   1.264   1_545  A
C31         C480   1.477       .  S
Cd32         O39   2.380       .  S
Cd32         O38   2.433   1_565  S
Cd32         O37   2.444       .  S
Cd32         O33   2.459       .  S
Cd32         O36   2.489   1_565  S
Cd32         O34   2.404       .  S
C35          O39   1.264   1_545  A
C35         C450   1.473       .  S
O40          C43   1.269   1_565  A
O40         Cd45   2.469       .  S
C41          O50   1.265       .  A
C41          O46   1.268       .  A
C41         C410   1.482       .  S
O42          C48   1.271       .  A
O42         Cd45   2.476   1_545  S
C43          O51   1.265       .  A
C43         C420   1.489       .  S
C44          O49   1.270       .  A
C44          O47   1.262   1_545  A
C44         C453   1.476       .  S
Cd45         O52   2.413       .  S
Cd45         O51   2.446   1_565  S
Cd45         O50   2.445       .  S
Cd45         O46   2.471       .  S
Cd45         O49   2.516   1_565  S
Cd45         O47   2.403       .  S
C48          O52   1.265   1_545  A
C48         C510   1.481       .  S
O53          C56   1.269       .  A
O53         Cd58   2.467       .  S
C54          O63   1.266       .  A
C54          O59   1.269       .  A
C54         C380   1.483       .  S
O55          C61   1.272   1_545  A
O55         Cd58   2.494   1_545  S
C56          O64   1.265   1_565  A
C56         C500   1.483   1_565  S
C57          O62   1.272   1_565  A
C57          O60   1.264       .  A
C57         C403   1.474       .  S
Cd58         O65   2.393       .  S
Cd58         O64   2.433   1_565  S
Cd58         O63   2.434       .  S
Cd58         O59   2.460       .  S
Cd58         O62   2.507   1_565  S
Cd58         O60   2.386       .  S
C61          O65   1.264       .  A
C61         C390   1.473   1_565  S
O66          C69   1.270       .  A
O66         Cd71   2.464       .  S
C67          O76   1.266   1_565  A
C67          O72   1.271       .  A
C67         C470   1.486   1_565  S
O68          C74   1.274       .  A
O68         Cd71   2.487   1_545  S
C69          O77   1.266       .  A
C69         C360   1.485       .  S
C70          O75   1.273   1_565  A
C70          O73   1.263       .  A
C70         C400   1.479       .  S
Cd71         O78   2.397       .  S
Cd71         O77   2.446       .  S
Cd71         O76   2.430   1_565  S
Cd71         O72   2.469       .  S
Cd71         O75   2.513   1_565  S
Cd71         O73   2.384       .  S
C74          O78   1.266   1_545  A
C74         C373   1.476       .  S
O79          C82   1.269       .  A
O79         Cd84   2.471       .  S
C80          O89   1.267       .  A
C80          O85   1.269       .  A
C80         C343   1.479       .  S
O81          C87   1.271       .  A
O81         Cd84   2.510       .  S
C82          O90   1.264       .  A
C82         C443   1.485       .  S
C83          O88   1.272       .  A
C83          O86   1.264       .  A
C83         C370   1.478       .  S
Cd84         O91   2.395       .  S
Cd84         O90   2.441       .  S
Cd84         O89   2.441       .  S
Cd84         O85   2.461       .  S
Cd84         O88   2.487       .  S
Cd84         O86   2.407       .  S
C87          O91   1.263       .  A
C87         C350   1.472       .  S
O92          C95   1.269       .  A
O92         Cd97   2.458       .  S
C93         O102   1.264       .  A
C93          O98   1.268       .  A
C93         C423   1.487       .  S
O94         C100   1.272       .  A
O94         Cd97   2.498       .  S
C95         O103   1.267       .  A
C95         C333   1.479       .  S
C96         O101   1.271       .  A
C96          O99   1.262       .  A
C96         C393   1.474       .  S
Cd97        O104   2.390       .  S
Cd97        O103   2.432       .  S
Cd97        O102   2.449       .  S
Cd97         O98   2.467       .  S
Cd97        O101   2.499       .  S
Cd97         O99   2.395       .  S
C100        O104   1.265       .  A
C100        C353   1.472       .  S
O105        C108   1.269       .  A
O105       Cd110   2.463       .  S
C106        O115   1.265       .  A
C106        O111   1.270       .  A
C106        C300   1.479       .  S
O107        C113   1.271       .  A
O107       Cd110   2.515       .  S
C108        O116   1.265       .  A
C108        C383   1.484       .  S
C109        O114   1.271       .  A
C109        O112   1.264       .  A
C109        C310   1.470       .  S
Cd110       O117   2.411       .  S
Cd110       O116   2.442       .  S
Cd110       O115   2.421       .  S
Cd110       O111   2.481       .  S
Cd110       O114   2.487       .  S
Cd110       O112   2.404       .  S
C113        O117   1.264       .  A
C113        C320   1.481       .  S
O118        C121   1.269       .  A
O118       Cd123   2.487       .  S
C119        O128   1.267       .  A
C119        O124   1.272       .  A
C119        C363   1.480       .  S
O120        C126   1.270       .  A
O120       Cd123   2.513       .  S
C121        O129   1.263       .  A
C121        C283   1.486       .  S
C122        O127   1.270       .  A
C122        O125   1.260       .  A
C122        C293   1.493       .  S
Cd123       O130   2.407       .  S
Cd123       O129   2.436       .  S
Cd123       O128   2.427       .  S
Cd123       O124   2.470       .  S
Cd123       O127   2.492       .  S
Cd123       O125   2.418       .  S
C126        O130   1.262       .  A
C126        C323   1.473       .  S
O131        C134   1.268       .  A
O131       Cd136   2.467       .  S
C132        O141   1.264       .  A
C132        O137   1.269       .  A
C132        C260   1.490       .  S
O133        C139   1.270       .  A
O133       Cd136   2.489       .  S
C134        O142   1.266       .  A
C134        C340   1.481       .  S
C135        O140   1.271       .  A
C135        O138   1.264       .  A
C135        C270   1.475       .  S
Cd136       O143   2.425       .  S
Cd136       O142   2.444       .  S
Cd136       O141   2.444       .  S
Cd136       O137   2.486       .  S
Cd136       O140   2.506       .  S
Cd136       O138   2.395       .  S
C139        O143   1.263       .  A
C139        C290   1.476       .  S
O144        C147   1.269       .  A
O144       Cd149   2.473       .  S
C145        O154   1.267       .  A
C145        O150   1.270       .  A
C145        C330   1.479       .  S
O146        C152   1.273       .  A
O146       Cd149   2.484       .  S
C147        O155   1.263       .  A
C147        C250   1.488       .  S
C148        O153   1.272       .  A
C148        O151   1.262       .  A
C148        C273   1.478       .  S
Cd149       O156   2.406       .  S
Cd149       O155   2.434       .  S
Cd149       O154   2.436       .  S
Cd149       O150   2.453       .  S
Cd149       O153   2.519       .  S
Cd149       O151   2.384       .  S
C152        O156   1.264       .  A
C152        C313   1.485       .  S
O157        C160   1.270       .  A
O157       Cd162   2.497       .  S
C158        O167   1.270       .  A
C158        O163   1.273       .  A
C158        C493   1.480       .  S
O159        C165   1.274       .  A
O159       Cd162   2.496       .  S
C160        O168   1.264       .  A
C160        C303   1.483       .  S
C161        O166   1.273       .  A
C161        O164   1.261       .  A
C161        C240   1.487       .  S
Cd162       O169   2.384       .  S
Cd162       O168   2.446       .  S
Cd162       O167   2.424       .  S
Cd162       O163   2.441       .  S
Cd162       O166   2.535       .  S
Cd162       O164   2.373       .  S
C165        O169   1.262       .  A
C165        C230   1.483       .  S
O170        C173   1.269       .  A
O170       Cd175   2.488       .  S
C171        O180   1.267       .  A
C171        O176   1.270       .  A
C171        C463   1.481       .  S
O172        C178   1.271       .  A
O172       Cd175   2.521       .  S
C173        O181   1.265       .  A
C173        C280   1.487       .  S
C174        O179   1.271       .  A
C174        O177   1.262       .  A
C174        C220   1.478       .  S
Cd175       O182   2.376       .  S
Cd175       O181   2.440       .  S
Cd175       O180   2.434       .  S
Cd175       O176   2.464       .  S
Cd175       O179   2.495       .  S
Cd175       O177   2.392       .  S
C178        O182   1.264       .  A
C178        C243   1.478       .  S
O183        C186   1.268       .  A
O183       Cd188   2.469       .  S
C184        O193   1.264       .  A
C184        O189   1.268       .  A
C184        C433   1.482       .  S
O185        C191   1.269       .  A
O185       Cd188   2.496       .  S
C186        O194   1.265       .  A
C186        C263   1.488       .  S
C187        O192   1.270       .  A
C187        O190   1.264       .  A
C187        C223   1.478       .  S
Cd188       O195   2.411       .  S
Cd188       O194   2.453       .  S
Cd188       O193   2.440       .  S
Cd188       O189   2.476       .  S
Cd188       O192   2.474       .  S
Cd188       O190   2.415       .  S
C191        O195   1.263       .  A
C191        C210   1.469       .  S
O196        C199   1.269       .  A
O196       Cd201   2.470       .  S
C197        O206   1.266       .  A
C197        O202   1.269       .  A
C197        C413   1.482       .  S
O198        C204   1.270       .  A
O198       Cd201   2.499       .  S
C199        O207   1.263       .  A
C199        C253   1.490       .  S
C200        O205   1.272       .  A
C200        O203   1.265       .  A
C200        C213   1.469       .  S
Cd201       O208   2.406       .  S
Cd201       O207   2.446       .  S
Cd201       O206   2.442       .  S
Cd201       O202   2.465       .  S
Cd201       O205   2.489       .  S
Cd201       O203   2.394       .  S
C204        O208   1.262       .  A
C204        C233   1.472       .  S
C209        C210   1.407       .  A
C209        C214   1.408   1_556  A
C209       Br216   1.927       .  S
C210        C211   1.408       .  A
C211        C212   1.405   1_556  A
C211       Br218   1.930       .  S
C212        C213   1.407       .  A
C212       Br217   1.930       .  S
C213        C214   1.409       .  A
C214       Br215   1.930       .  S
C219        C220   1.414       .  A
C219        C224   1.406       .  A
C219       Br226   1.934       .  S
C220        C221   1.409       .  A
C221        C222   1.408       .  A
C221       Br228   1.931       .  S
C222        C223   1.414       .  A
C222       Br227   1.931       .  S
C223        C224   1.411       .  A
C224       Br225   1.934       .  S
C229        C230   1.418       .  A
C229        C234   1.402       .  A
C229       Br236   1.939       .  S
C230        C231   1.414       .  A
C231        C232   1.413       .  A
C231       Br238   1.928       .  S
C232        C233   1.408       .  A
C232       Br237   1.927       .  S
C233        C234   1.406       .  A
C234       Br235   1.933       .  S
C239        C240   1.415       .  A
C239        C244   1.396       .  A
C239       Br246   1.929       .  S
C240        C241   1.416       .  A
C241        C242   1.419       .  A
C241       Br248   1.926       .  S
C242        C243   1.411       .  A
C242       Br247   1.925       .  S
C243        C244   1.406       .  A
C244       Br245   1.937       .  S
C249        C250   1.418       .  A
C249        C254   1.409   1_655  A
C249       Br256   1.936       .  S
C250        C251   1.413   1_655  A
C251        C252   1.410       .  A
C251       Br258   1.936       .  S
C252        C253   1.419       .  A
C252       Br257   1.935       .  S
C253        C254   1.413       .  A
C254       Br255   1.937       .  S
C259        C260   1.416       .  A
C259        C264   1.409   1_655  A
C259       Br266   1.931       .  S
C260        C261   1.414   1_655  A
C261        C262   1.411       .  A
C261       Br268   1.934   1_455  S
C262        C263   1.416       .  A
C262       Br267   1.933       .  S
C263        C264   1.413       .  A
C264       Br265   1.936       .  S
C269        C270   1.410       .  A
C269        C274   1.413   1_556  A
C269       Br276   1.926       .  S
C270        C271   1.408       .  A
C271        C272   1.402   1_556  A
C271       Br278   1.935       .  S
C272        C273   1.411       .  A
C272       Br277   1.932       .  S
C273        C274   1.411       .  A
C274       Br275   1.927       .  S
C279        C280   1.415       .  A
C279        C284   1.410       .  A
C279       Br286   1.934       .  S
C280        C281   1.413       .  A
C281        C282   1.410   1_455  A
C281       Br288   1.933       .  S
C282        C283   1.415       .  A
C282       Br287   1.935       .  S
C283        C284   1.412   1_655  A
C284       Br285   1.934   1_455  S
C289        C290   1.404       .  A
C289        C294   1.407       .  A
C289       Br296   1.931       .  S
C290        C291   1.407       .  A
C291        C292   1.410       .  A
C291       Br298   1.931       .  S
C292        C293   1.417       .  A
C292       Br297   1.931       .  S
C293        C294   1.425       .  A
C294       Br295   1.939       .  S
C299        C300   1.409       .  A
C299        C304   1.405   1_655  A
C299       Br306   1.932       .  S
C300        C301   1.411   1_655  A
C301        C302   1.411       .  A
C301       Br308   1.931   1_455  S
C302        C303   1.414       .  A
C302       Br307   1.931       .  S
C303        C304   1.409       .  A
C304       Br305   1.921       .  S
C309        C310   1.407       .  A
C309        C314   1.411       .  A
C309       Br316   1.929       .  S
C310        C311   1.405       .  A
C311        C312   1.405       .  A
C311       Br318   1.935       .  S
C312        C313   1.419       .  A
C312       Br317   1.937       .  S
C313        C314   1.415       .  A
C314       Br315   1.929       .  S
C319        C320   1.413       .  A
C319        C324   1.413       .  A
C319       Br326   1.927       .  S
C320        C321   1.411       .  A
C321        C322   1.404       .  A
C321       Br328   1.929       .  S
C322        C323   1.407       .  A
C322       Br327   1.933       .  S
C323        C324   1.408       .  A
C324       Br325   1.927       .  S
C329        C330   1.412       .  A
C329        C334   1.408       .  A
C329       Br336   1.933       .  S
C330        C331   1.412       .  A
C331        C332   1.408       .  A
C331       Br338   1.933       .  S
C332        C333   1.412       .  A
C332       Br337   1.934       .  S
C333        C334   1.412       .  A
C334       Br335   1.933       .  S
C339        C340   1.412       .  A
C339        C344   1.409       .  A
C339       Br346   1.932       .  S
C340        C341   1.413       .  A
C341        C342   1.408       .  A
C341       Br348   1.933       .  S
C342        C343   1.411       .  A
C342       Br347   1.933       .  S
C343        C344   1.412       .  A
C344       Br345   1.933       .  S
C349        C350   1.408       .  A
C349        C354   1.403   1_556  A
C349       Br356   1.932       .  S
C350        C351   1.409       .  A
C351        C352   1.411   1_556  A
C351       Br358   1.927   1_545  S
C352        C353   1.410       .  A
C352       Br357   1.928   1_545  S
C353        C354   1.408       .  A
C354       Br355   1.932       .  S
C359        C360   1.412       .  A
C359        C364   1.408       .  A
C359       Br366   1.933       .  S
C360        C361   1.416       .  A
C361        C362   1.409       .  A
C361       Br368   1.931       .  S
C362        C363   1.410       .  A
C362       Br367   1.933       .  S
C363        C364   1.412       .  A
C364       Br365   1.933       .  S
C369        C370   1.412       .  A
C369        C374   1.403       .  A
C369       Br376   1.936       .  S
C370        C371   1.411       .  A
C371        C372   1.412       .  A
C371       Br378   1.928       .  S
C372        C373   1.410       .  A
C372       Br377   1.928       .  S
C373        C374   1.410       .  A
C374       Br375   1.936       .  S
C379        C380   1.413       .  A
C379        C384   1.408       .  A
C379       Br386   1.935       .  S
C380        C381   1.414       .  A
C381        C382   1.409       .  A
C381       Br388   1.934       .  S
C382        C383   1.412       .  A
C382       Br387   1.933       .  S
C383        C384   1.415       .  A
C384       Br385   1.933       .  S
C389        C390   1.410       .  A
C389        C394   1.400       .  A
C389       Br396   1.934       .  S
C390        C391   1.409       .  A
C391        C392   1.413       .  A
C391       Br398   1.927       .  S
C392        C393   1.411       .  A
C392       Br397   1.927       .  S
C393        C394   1.410       .  A
C394       Br395   1.936       .  S
C399        C400   1.413   1_545  A
C399        C404   1.414       .  A
C399       Br406   1.928       .  S
C400        C401   1.412       .  A
C401        C402   1.401       .  A
C401       Br408   1.932       .  S
C402        C403   1.408       .  A
C402       Br407   1.936       .  S
C403        C404   1.409   1_565  A
C404       Br405   1.927       .  S
C409        C410   1.413       .  A
C409        C414   1.409       .  A
C409       Br416   1.933       .  S
C410        C411   1.412       .  A
C411        C412   1.409       .  A
C411       Br418   1.933       .  S
C412        C413   1.413       .  A
C412       Br417   1.933       .  S
C413        C414   1.412       .  A
C414       Br415   1.933       .  S
C419        C420   1.418       .  A
C419        C424   1.409       .  A
C419       Br426   1.934       .  S
C420        C421   1.414   1_545  A
C421        C422   1.410   1_565  A
C421       Br428   1.936       .  S
C422        C423   1.416       .  A
C422       Br427   1.935   1_545  S
C423        C424   1.413       .  A
C424       Br425   1.936       .  S
C429        C430   1.414       .  A
C429        C434   1.409       .  A
C429       Br436   1.933       .  S
C430        C431   1.412       .  A
C431        C432   1.408       .  A
C431       Br438   1.934       .  S
C432        C433   1.414       .  A
C432       Br437   1.934       .  S
C433        C434   1.411       .  A
C434       Br435   1.933       .  S
C439        C440   1.413   1_565  A
C439        C444   1.409   1_565  A
C439       Br446   1.935       .  S
C440        C441   1.417       .  A
C441        C442   1.409       .  A
C441       Br448   1.935       .  S
C442        C443   1.413       .  A
C442       Br447   1.935       .  S
C443        C444   1.414       .  A
C444       Br445   1.934   1_545  S
C449        C450   1.408       .  A
C449        C454   1.402   1_556  A
C449       Br456   1.934       .  S
C450        C451   1.409       .  A
C451        C452   1.413   1_556  A
C451       Br458   1.926   1_545  S
C452        C453   1.411       .  A
C452       Br457   1.927   1_545  S
C453        C454   1.409       .  A
C454       Br455   1.929       .  S
C459        C460   1.412       .  A
C459        C464   1.408       .  A
C459       Br466   1.933       .  S
C460        C461   1.413       .  A
C461        C462   1.409       .  A
C461       Br468   1.933       .  S
C462        C463   1.412       .  A
C462       Br467   1.933       .  S
C463        C464   1.413       .  A
C464       Br465   1.933       .  S
C469        C470   1.413   1_565  A
C469        C474   1.409   1_565  A
C469       Br476   1.934       .  S
C470        C471   1.416       .  A
C471        C472   1.409       .  A
C471       Br478   1.934       .  S
C472        C473   1.411       .  A
C472       Br477   1.934       .  S
C473        C474   1.416       .  A
C474       Br475   1.934   1_545  S
C479        C480   1.410       .  A
C479        C484   1.412       .  A
C479       Br486   1.928       .  S
C480        C481   1.410       .  A
C481        C482   1.402       .  A
C481       Br488   1.935       .  S
C482        C483   1.414       .  A
C482       Br487   1.937       .  S
C483        C484   1.411       .  A
C484       Br485   1.928       .  S
C489        C490   1.413       .  A
C489        C494   1.408       .  A
C489       Br496   1.932       .  S
C490        C491   1.411       .  A
C491        C492   1.408       .  A
C491       Br498   1.932       .  S
C492        C493   1.414       .  A
C492       Br497   1.934       .  S
C493        C494   1.411       .  A
C494       Br495   1.933       .  S
C499        C500   1.414       .  A
C499        C504   1.408       .  A
C499       Br506   1.934       .  S
C500        C501   1.413   1_545  A
C501        C502   1.408   1_565  A
C501       Br508   1.934       .  S
C502        C503   1.413       .  A
C502       Br507   1.935   1_545  S
C503        C504   1.412       .  A
C504       Br505   1.934       .  S
C509        C510   1.411       .  A
C509        C514   1.407       .  A
C509       Br516   1.933       .  S
C510        C511   1.414   1_545  A
C511        C512   1.409   1_565  A
C511       Br518   1.933       .  S
C512        C513   1.411       .  A
C512       Br517   1.931   1_545  S
C513        C514   1.414       .  A
C514       Br515   1.934       .  S
C519        C520   1.410       .  A
C519        C524   1.413       .  A
C519       Br526   1.927       .  S
C520        C521   1.409       .  A
C521        C522   1.403       .  A
C521       Br528   1.933       .  S
C522        C523   1.411       .  A
C522       Br527   1.935       .  S
C523        C524   1.411       .  A
C524       Br525   1.927       .  S
