geometry optimzed in LAMMPS
_audit_creation_date              2020-12-01 
_audit_creation_method            'lammps2cif' 
_symmetry_space_group_name_H-M    'P1' 
_symmetry_Int_Tables_number       1 
_symmetry_cell_setting            triclinic 
loop_ 
_symmetry_equiv_pos_as_xyz 
  x,y,z 
_cell_length_a                    38.46115249 
_cell_length_b                    38.84994806281827 
_cell_length_c                    59.66464668396568 
_cell_angle_alpha                 89.6157082984255 
_cell_angle_beta                  90.13970026222518 
_cell_angle_gamma                 90.20322955042342 
loop_ 
_atom_site_label 
_atom_site_type_symbol 
_atom_site_fract_x 
_atom_site_fract_y 
_atom_site_fract_z 
_atom_site_charge 
O1          O  0.42575714  0.10980464  0.13282907    -0.74400
O2          O  0.39284291  0.20382796  0.13265907    -0.74500
O3          O  0.42071994  0.16015215  0.16428353    -0.74500
O4          O  0.39967790  0.15360921  0.10164566    -0.74600
O5          O  0.34608029  0.13526094  0.10939531    -0.74500
O6          O  0.36761613  0.14124939  0.17290921    -0.74500
O7          O  0.33994428  0.18447060  0.14132597    -0.74400
O8          O  0.37209540  0.09180432  0.14080892    -0.74500
Ni9        Ni  0.41165073  0.15756882  0.13266566     1.25400
Ni10       Ni  0.35456612  0.13760687  0.14148536     1.25400
C11         C  0.40386393  0.08529214  0.13635050     0.87800
C12         C  0.36039132  0.20932672  0.13624422     0.87700
C13         C  0.39812566  0.15129650  0.17897404     0.87700
C14         C  0.36971689  0.14337766  0.09505500     0.87900
O15         O  0.44481099  0.80781157  0.12870368    -0.74400
O16         O  0.47489730  0.71284067  0.13317788    -0.74500
O17         O  0.44669163  0.75952642  0.16170173    -0.74500
O18         O  0.47166790  0.76065310  0.09953208    -0.74600
O19         O  0.52544103  0.77765455  0.10808151    -0.74500
O20         O  0.49980745  0.77812224  0.17068794    -0.74500
O21         O  0.52782630  0.73151246  0.14193423    -0.74400
O22         O  0.49856426  0.82453917  0.13635769    -0.74500
Ni23       Ni  0.45759679  0.75955289  0.13040734     1.25400
Ni24       Ni  0.51472082  0.77854555  0.13963294     1.25400
C25         C  0.46697307  0.83210912  0.13207296     0.87800
C26         C  0.50676964  0.70664847  0.13830909     0.87700
C27         C  0.46888118  0.76904012  0.17640619     0.87700
C28         C  0.50252419  0.76902764  0.09348916     0.87900
O29         O  0.43469965  0.09745510  0.89022155    -0.74400
O30         O  0.40940858  0.19313406  0.88821011    -0.74500
O31         O  0.40988067  0.14312518  0.92032349    -0.74500
O32         O  0.43522267  0.14723760  0.85842326    -0.74600
O33         O  0.38121483  0.13406576  0.84834273    -0.74500
O34         O  0.35596438  0.12739494  0.91117298    -0.74500
O35         O  0.35527734  0.17769453  0.87912342    -0.74400
O36         O  0.38069720  0.08312738  0.88006452    -0.74500
Ni37       Ni  0.42417732  0.14577966  0.88964518     1.25400
Ni38       Ni  0.36633657  0.13004158  0.87933712     1.25400
C39         C  0.41171869  0.07467119  0.88538637     0.87800
C40         C  0.37795782  0.20095562  0.88317970     0.87700
C41         C  0.37917534  0.13396966  0.92612945     0.87700
C42         C  0.41266232  0.14196277  0.84302777     0.87900
O43         O  0.45914444  0.80007192  0.88942477    -0.74400
O44         O  0.49269575  0.70682665  0.88499101    -0.74500
O45         O  0.48582594  0.75288075  0.91847022    -0.74500
O46         O  0.46500557  0.75480257  0.85569669    -0.74600
O47         O  0.51801017  0.77470396  0.84843568    -0.74500
O48         O  0.53940214  0.77151847  0.91177671    -0.74500
O49         O  0.54548703  0.72748947  0.87738670    -0.74400
O50         O  0.51273822  0.81953345  0.88275374    -0.74500
Ni51       Ni  0.47378207  0.75286695  0.88733457     1.25400
Ni52       Ni  0.53075934  0.77402904  0.87980514     1.25400
C53         C  0.48057268  0.82510648  0.88665790     0.87800
C54         C  0.52521500  0.70202255  0.88133397     0.87700
C55         C  0.51618027  0.76086300  0.92564259     0.87700
C56         C  0.48752010  0.76602179  0.84163285     0.87900
O57         O  0.44868802  0.81516514  0.62856671    -0.74400
O58         O  0.41827536  0.72108507  0.63378533    -0.74500
O59         O  0.42339364  0.76747909  0.59982099    -0.74500
O60         O  0.44402411  0.76921346  0.66255701    -0.74600
O61         O  0.38998238  0.78566233  0.66992023    -0.74500
O62         O  0.36982528  0.78638213  0.60660059    -0.74500
O63         O  0.36435171  0.73939990  0.64030271    -0.74400
O64         O  0.39486995  0.83281371  0.63618365    -0.74500
Ni65       Ni  0.43548987  0.76754535  0.63094781     1.25400
Ni66       Ni  0.37782668  0.78666678  0.63851243     1.25400
C67         C  0.42671134  0.83938606  0.63166285     0.87800
C68         C  0.38607606  0.71489760  0.63767615     0.87700
C69         C  0.39353408  0.77727823  0.59277499     0.87700
C70         C  0.42060688  0.77760899  0.67670915     0.87900
O71         O  0.46076022  0.11403579  0.63400560    -0.74400
O72         O  0.48306510  0.21073448  0.63477154    -0.74500
O73         O  0.47949427  0.16129720  0.60291261    -0.74500
O74         O  0.46354431  0.16298914  0.66620956    -0.74600
O75         O  0.51927434  0.15126513  0.67265070    -0.74500
O76         O  0.53492921  0.14733629  0.60880357    -0.74500
O77         O  0.53872117  0.19715024  0.64053065    -0.74400
O78         O  0.51626471  0.10151267  0.64095474    -0.74500
Ni79       Ni  0.46973923  0.16278594  0.63431520     1.25400
Ni80       Ni  0.52928645  0.14894541  0.64097704     1.25400
C81         C  0.48502180  0.09189659  0.63704882     0.87800
C82         C  0.51491190  0.21963981  0.63755319     0.87700
C83         C  0.50947755  0.15322347  0.59535268     0.87700
C84         C  0.48852784  0.15726827  0.67996593     0.87900
O85         O  0.43443579  0.81659382  0.38520012    -0.74400
O86         O  0.39899612  0.72346496  0.38596511    -0.74500
O87         O  0.42458729  0.76710122  0.35383336    -0.74500
O88         O  0.40978077  0.77231735  0.41702359    -0.74600
O89         O  0.35572984  0.79098538  0.41124659    -0.74500
O90         O  0.37170637  0.78827646  0.34746034    -0.74500
O91         O  0.34598757  0.74395860  0.37890531    -0.74400
O92         O  0.38045799  0.83578312  0.38001045    -0.74500
Ni93       Ni  0.41891138  0.76918400  0.38566148     1.25400
Ni94       Ni  0.36161412  0.79045634  0.37913488     1.25400
C95         C  0.41295817  0.84154996  0.38253110     0.87800
C96         C  0.36619915  0.71874100  0.38328845     0.87700
C97         C  0.40104787  0.77739137  0.34017018     0.87700
C98         C  0.38014227  0.78144154  0.42459263     0.87900
O99         O  0.44773414  0.11939869  0.38843761    -0.74400
O100        O  0.47872342  0.21442797  0.38804089    -0.74500
O101        O  0.45177512  0.16971579  0.35692943    -0.74500
O102        O  0.47306648  0.16403779  0.41958376    -0.74600
O103        O  0.52739463  0.14852975  0.41198827    -0.74500
O104        O  0.50508161  0.15148023  0.34865131    -0.74500
O105        O  0.53188312  0.19642977  0.37915336    -0.74400
O106        O  0.50212484  0.10322405  0.38162732    -0.74500
Ni107      Ni  0.46088804  0.16758322  0.38852172     1.25400
Ni108      Ni  0.51847291  0.14936273  0.38003025     1.25400
C109        C  0.47020166  0.09563573  0.38489226     0.87800
C110        C  0.51096903  0.22070461  0.38400438     0.87700
C111        C  0.47434936  0.16047867  0.34245808     0.87700
C112        C  0.50364951  0.15597228  0.42625641     0.87900
O113        O  0.09591730  0.46737096  0.13208735    -0.74400
O114        O  0.18988312  0.43178430  0.13428381    -0.74500
O115        O  0.14159817  0.44207898  0.10152867    -0.74500
O116        O  0.14460093  0.45807718  0.16477724    -0.74600
O117        O  0.12393025  0.40528140  0.17121204    -0.74500
O118        O  0.12015785  0.38947644  0.10752044    -0.74500
O119        O  0.16799979  0.37932961  0.14029572    -0.74400
O120        O  0.07563948  0.41440112  0.13853110    -0.74500
Ni121      Ni  0.14375126  0.45175133  0.13295139     1.25400
Ni122      Ni  0.12122294  0.39530369  0.13961456     1.25400
C123        C  0.07031693  0.44639533  0.13483307     0.87800
C124        C  0.19414672  0.39937669  0.13772183     0.87700
C125        C  0.13038965  0.41329492  0.09402272     0.87700
C126        C  0.13483265  0.43444750  0.17845525     0.87900
O127        O  0.79263380  0.48110388  0.12445479    -0.74400
O128        O  0.69443250  0.50276930  0.12309082    -0.74500
O129        O  0.74639250  0.50086916  0.09229007    -0.74500
O130        O  0.74151844  0.48181146  0.15511624    -0.74600
O131        O  0.75370726  0.53640685  0.16256927    -0.74500
O132        O  0.75752991  0.55587555  0.09886999    -0.74500
O133        O  0.70774031  0.55742143  0.13048009    -0.74400
O134        O  0.80455522  0.53630337  0.13108788    -0.74500
Ni135      Ni  0.74322312  0.48971615  0.12348730     1.25400
Ni136      Ni  0.75635339  0.54841774  0.13102962     1.25400
C137        C  0.81464921  0.50530957  0.12824991     0.87800
C138        C  0.68519272  0.53417355  0.12610891     0.87700
C139        C  0.75180064  0.53141932  0.08492706     0.87700
C140        C  0.74766125  0.50548445  0.16938289     0.87900
O141        O  0.11349179  0.46046256  0.88601875    -0.74400
O142        O  0.20295072  0.41597654  0.88641838    -0.74500
O143        O  0.16158518  0.44649250  0.85431997    -0.74500
O144        O  0.15448302  0.43047937  0.91763979    -0.74600
O145        O  0.12993508  0.37948986  0.91154040    -0.74500
O146        O  0.13634062  0.39613140  0.84784181    -0.74500
O147        O  0.17691392  0.36595678  0.87934882    -0.74400
O148        O  0.08834789  0.40946894  0.88003971    -0.74500
Ni149      Ni  0.15909940  0.44016343  0.88625677     1.25400
Ni150      Ni  0.13192578  0.38604585  0.87941961     1.25400
C151        C  0.08623939  0.44193081  0.88316319     0.87800
C152        C  0.20441122  0.38327015  0.88365529     0.87700
C153        C  0.14985932  0.42422263  0.84044464     0.87700
C154        C  0.14175382  0.40215568  0.92515920     0.87900
O155        O  0.80877998  0.47213238  0.88159604    -0.74400
O156        O  0.71115256  0.49520005  0.87808609    -0.74500
O157        O  0.75905922  0.47031357  0.84908821    -0.74500
O158        O  0.76072353  0.49550109  0.91082069    -0.74600
O159        O  0.77542274  0.54933870  0.90159063    -0.74500
O160        O  0.77241356  0.52411146  0.83905316    -0.74500
O161        O  0.72629694  0.54890866  0.86901712    -0.74400
O162        O  0.82206644  0.52584843  0.87134987    -0.74500
Ni163      Ni  0.75943110  0.48133785  0.88023202     1.25400
Ni164      Ni  0.77454917  0.53892745  0.86990463     1.25400
C165        C  0.83144538  0.49561486  0.87722344     0.87800
C166        C  0.70286270  0.52624857  0.87283404     0.87700
C167        C  0.76502171  0.49287732  0.83386471     0.87700
C168        C  0.76851851  0.52626886  0.91647774     0.87900
O169        O  0.80529259  0.44709439  0.62600315    -0.74400
O170        O  0.70987766  0.41384671  0.62545195    -0.74500
O171        O  0.75453231  0.43982485  0.65722233    -0.74500
O172        O  0.76050725  0.42376744  0.59443661    -0.74600
O173        O  0.77877830  0.37020296  0.60089480    -0.74500
O174        O  0.77237807  0.38686986  0.66476235    -0.74500
O175        O  0.72970932  0.36172004  0.63320162    -0.74400
O176        O  0.82268446  0.39349457  0.63319431    -0.74500
Ni177      Ni  0.75680937  0.43307610  0.62560634     1.25400
Ni178      Ni  0.77655458  0.37624590  0.63323990     1.25400
C179        C  0.82970955  0.42507559  0.62936137     0.87800
C180        C  0.70427079  0.38153806  0.62895997     0.87700
C181        C  0.76222367  0.41649659  0.67155560     0.87700
C182        C  0.77075366  0.39469926  0.58719949     0.87900
O183        O  0.11012280  0.46714366  0.62708109    -0.74400
O184        O  0.20300476  0.50496526  0.62946624    -0.74500
O185        O  0.15975418  0.47125247  0.65929060    -0.74500
O186        O  0.15299587  0.50052142  0.59780272    -0.74600
O187        O  0.13252368  0.55126923  0.60840233    -0.74500
O188        O  0.13827583  0.52154338  0.66996110    -0.74500
O189        O  0.18101641  0.55487117  0.64076955    -0.74400
O190        O  0.08896496  0.51805833  0.63730376    -0.74500
Ni191      Ni  0.15727808  0.48411890  0.62809815     1.25400
Ni192      Ni  0.13440575  0.53810894  0.63956980     1.25400
C193        C  0.08429834  0.48667557  0.63158651     0.87800
C194        C  0.20696560  0.53679622  0.63454978     0.87700
C195        C  0.14952864  0.49136648  0.67488178     0.87700
C196        C  0.14265385  0.53101553  0.59288509     0.87900
O197        O  0.78670863  0.46478626  0.38269153    -0.74400
O198        O  0.69192303  0.43345418  0.37735908    -0.74500
O199        O  0.73915438  0.43892380  0.41136253    -0.74500
O200        O  0.74038359  0.46004354  0.34860804    -0.74600
O201        O  0.75861478  0.40707727  0.34120701    -0.74500
O202        O  0.75723729  0.38615470  0.40448871    -0.74500
O203        O  0.71124266  0.38065501  0.37032655    -0.74400
O204        O  0.80499790  0.41150142  0.37565240    -0.74500
Ni205      Ni  0.73876611  0.45117736  0.38020883     1.25400
Ni206      Ni  0.75864829  0.39449743  0.37261277     1.25400
C207        C  0.81130635  0.44293083  0.38042917     0.87800
C208        C  0.68608362  0.40158105  0.37316818     0.87700
C209        C  0.74852801  0.40933927  0.41860865     0.87700
C210        C  0.74981696  0.43728738  0.33445719     0.87900
O211        O  0.08951469  0.47736528  0.39195459    -0.74400
O212        O  0.18515877  0.50601582  0.38728065    -0.74500
O213        O  0.13681388  0.50418550  0.42044144    -0.74500
O214        O  0.13760796  0.47842881  0.35875397    -0.74600
O215        O  0.12208589  0.53097978  0.34880301    -0.74500
O216        O  0.11829172  0.55671043  0.41112900    -0.74500
O217        O  0.16706293  0.55884910  0.37850053    -0.74400
O218        O  0.07278748  0.52988802  0.38134011    -0.74500
Ni219      Ni  0.13791771  0.48961609  0.38993915     1.25400
Ni220      Ni  0.11946205  0.54597062  0.37957513     1.25400
C221        C  0.06546474  0.49917448  0.38751200     0.87800
C222        C  0.19165765  0.53749342  0.38213941     0.87700
C223        C  0.12679787  0.53429617  0.42604780     0.87700
C224        C  0.13038524  0.50024632  0.34329536     0.87900
C225        C  0.84767423  0.45359154  0.38367313     0.01300
C226        C  0.86375669  0.47591505  0.36814129     0.04200
C227        C  0.89939922  0.48347078  0.37023604    -0.11900
C228        C  0.91889787  0.46869559  0.38784673     0.23500
C229        C  0.90260535  0.44724958  0.40376147    -0.12500
C230        C  0.86703077  0.43965308  0.40166110     0.04900
C231        C  0.95676819  0.47499719  0.38924002     0.27300
C232        C  0.97990197  0.45280411  0.37822297    -0.13200
C233        C  0.01576027  0.45997092  0.37822086     0.05400
C234        C  0.02852914  0.48929295  0.38943303    -0.09100
C235        C  0.00535580  0.51064149  0.40131859     0.06200
C236        C  0.96952743  0.50347612  0.40116468    -0.13500
Br237      Br  0.92932733  0.42802236  0.42822159    -0.05600
Br238      Br  0.83740356  0.49456634  0.34335450     0.00100
Br239      Br  0.04678202  0.43088009  0.36148386     0.00500
Br240      Br  0.93763345  0.53273366  0.41707952    -0.03900
Br241      Br  0.84481005  0.41050809  0.42366215     0.00600
Br242      Br  0.92188456  0.51340205  0.34875611    -0.03200
Br243      Br  0.96210990  0.41296652  0.36275183    -0.04100
Br244      Br  0.02246526  0.54938916  0.41830264    -0.00100
C245        C  0.14272365  0.54225843  0.56883872     0.01300
C246        C  0.11666603  0.56415126  0.55979613     0.04200
C247        C  0.11262311  0.56719318  0.53632944    -0.11900
C248        C  0.13581845  0.55042351  0.52185115     0.23500
C249        C  0.16447062  0.53260192  0.53083720    -0.12500
C250        C  0.16833090  0.52911265  0.55419492     0.04900
C251        C  0.12952354  0.54992277  0.49723255     0.27300
C252        C  0.10864225  0.52370516  0.48804580    -0.13200
C253        C  0.10609891  0.52004860  0.46466377     0.05400
C254        C  0.12480080  0.54235345  0.45025440    -0.09100
C255        C  0.14401626  0.56993619  0.45942764     0.06200
C256        C  0.14637896  0.57366062  0.48290516    -0.13500
Br257      Br  0.19773616  0.51170188  0.51096207    -0.05600
Br258      Br  0.08720263  0.59142696  0.57882156     0.00100
Br259      Br  0.07658515  0.48446296  0.45241683     0.00500
Br260      Br  0.17399222  0.61020045  0.49561770    -0.03900
Br261      Br  0.21064121  0.50911498  0.56593738     0.00600
Br262      Br  0.07441236  0.59304177  0.52378788    -0.03200
Br263      Br  0.08475221  0.49178327  0.50765469    -0.04100
Br264      Br  0.16909262  0.60116388  0.44002147    -0.00100
C265        C  0.77281020  0.39029737  0.56254311     0.01300
C266        C  0.74874327  0.36893014  0.55136504     0.04200
C267        C  0.74647845  0.36942049  0.52779662    -0.11900
C268        C  0.76864224  0.39092132  0.51514724     0.23500
C269        C  0.79382546  0.41115008  0.52616787    -0.12500
C270        C  0.79524407  0.41161650  0.54978083     0.04900
C271        C  0.76293555  0.39489428  0.49054519     0.27300
C272        C  0.77541175  0.37015446  0.47555474    -0.13200
C273        C  0.76862194  0.37321118  0.45234833     0.05400
C274        C  0.75088322  0.40264769  0.44357820    -0.09100
C275        C  0.73733475  0.42690869  0.45920768     0.06200
C276        C  0.74331027  0.42274052  0.48240480    -0.13500
Br277      Br  0.82547584  0.43916087  0.50877521    -0.05600
Br278      Br  0.71590175  0.34201415  0.56819806     0.00100
Br279      Br  0.78351687  0.33551512  0.43365417     0.00500
Br280      Br  0.72427240  0.45523852  0.50353565    -0.03900
Br281      Br  0.82640123  0.44331100  0.56453926     0.00600
Br282      Br  0.71138204  0.34234069  0.51276546    -0.03200
Br283      Br  0.80241925  0.33212394  0.48717894    -0.04100
Br284      Br  0.70893826  0.46569833  0.45014143    -0.00100
C285        C  0.86690744  0.43504306  0.62856184     0.01300
C286        C  0.89019978  0.41523848  0.61561331     0.04200
C287        C  0.92609895  0.42204993  0.61630930    -0.11900
C288        C  0.93917276  0.44822268  0.63017627     0.23500
C289        C  0.91615740  0.46798711  0.64314819    -0.12500
C290        C  0.88004958  0.46159507  0.64225959     0.04900
C291        C  0.97695714  0.45624384  0.63003423     0.27300
C292        C  0.99966517  0.44087816  0.64575905    -0.13200
C293        C  0.03529899  0.44968837  0.64582600     0.05400
C294        C  0.04828097  0.47347192  0.62994706    -0.09100
C295        C  0.02589418  0.48683914  0.61334394     0.06200
C296        C  0.99026852  0.47880726  0.61361496    -0.13500
Br297      Br  0.93445350  0.50350479  0.66234028    -0.05600
Br298      Br  0.87331225  0.37877111  0.59649781     0.00100
Br299      Br  0.06615688  0.42979703  0.66785760     0.00500
Br300      Br  0.95943789  0.49885260  0.59155251    -0.03900
Br301      Br  0.84906053  0.48784483  0.66086454     0.00600
Br302      Br  0.95765741  0.39561131  0.59816162    -0.03200
Br303      Br  0.98175963  0.40795358  0.66715250    -0.04100
Br304      Br  0.04436221  0.51450575  0.58936231    -0.00100
C305        C  0.76299201  0.48216738  0.81004167     0.01300
C306        C  0.73375096  0.46341098  0.80235393     0.04200
C307        C  0.73291574  0.45046012  0.78035357    -0.11900
C308        C  0.76053816  0.45744194  0.76550490     0.23500
C309        C  0.78925390  0.47703354  0.77291527    -0.12500
C310        C  0.79082461  0.48878253  0.79521395     0.04900
C311        C  0.75902883  0.44512846  0.74188676     0.27300
C312        C  0.77856020  0.41640790  0.73521917    -0.13200
C313        C  0.77989650  0.40683614  0.71243214     0.05400
C314        C  0.75963441  0.42468956  0.69612708    -0.09100
C315        C  0.73778279  0.45196240  0.70351037     0.06200
C316        C  0.73864130  0.46277345  0.72601075    -0.13500
Br317      Br  0.82642410  0.48783565  0.75233432    -0.05600
Br318      Br  0.69380981  0.45681504  0.82151656     0.00100
Br319      Br  0.81153719  0.37050119  0.70424996     0.00500
Br320      Br  0.71228818  0.50255395  0.73523958    -0.03900
Br321      Br  0.83213718  0.51204502  0.80567896     0.00600
Br322      Br  0.69400523  0.42284112  0.77051100    -0.03200
Br323      Br  0.80365672  0.39030009  0.75763493    -0.04100
Br324      Br  0.70479290  0.47440992  0.68373292    -0.00100
C325        C  0.15147121  0.43149742  0.81561712     0.01300
C326        C  0.12661814  0.41702524  0.80063012     0.04200
C327        C  0.12802180  0.42457554  0.77744577    -0.11900
C328        C  0.15235091  0.44851735  0.76900550     0.23500
C329        C  0.17673889  0.46337007  0.78370027    -0.12500
C330        C  0.17724830  0.45403159  0.80660794     0.04900
C331        C  0.15155783  0.45891521  0.74480145     0.27300
C332        C  0.17702709  0.44693580  0.72983358    -0.13200
C333        C  0.17686844  0.45776527  0.70717438     0.05400
C334        C  0.15012774  0.47958569  0.69889705    -0.09100
C335        C  0.12364032  0.49009819  0.71387986     0.06200
C336        C  0.12519042  0.48089551  0.73677457    -0.13500
Br337      Br  0.20910901  0.49743532  0.77235927    -0.05600
Br338      Br  0.08852443  0.38872125  0.81125247     0.00100
Br339      Br  0.21454485  0.44328776  0.68818665     0.00500
Br340      Br  0.09135118  0.49897481  0.75744280    -0.03900
Br341      Br  0.21491632  0.47154365  0.82477619     0.00600
Br342      Br  0.09629949  0.40223741  0.75694981    -0.03200
Br343      Br  0.21231726  0.41554559  0.74055496    -0.04100
Br344      Br  0.08321737  0.51475961  0.70319855    -0.00100
C345        C  0.05140920  0.45744880  0.88372496     0.01300
C346        C  0.03643836  0.47093167  0.86400913     0.04200
C347        C  0.00076757  0.47897979  0.86349435    -0.11900
C348        C  0.97985058  0.47224048  0.88243901     0.23500
C349        C  0.99531423  0.46036201  0.90247353    -0.12500
C350        C  0.03126604  0.45421069  0.90327010     0.04900
C351        C  0.94170548  0.47780254  0.88136428     0.27300
C352        C  0.92713420  0.50728426  0.89110862    -0.13200
C353        C  0.89095523  0.51227923  0.89054340     0.05400
C354        C  0.86916585  0.48857119  0.87922874    -0.09100
C355        C  0.88397817  0.45947859  0.86895782     0.06200
C356        C  0.92002526  0.45360701  0.87062625    -0.13500
Br357      Br  0.96707611  0.45112646  0.92854452    -0.05600
Br358      Br  0.06480133  0.47791392  0.83775829     0.00100
Br359      Br  0.87159201  0.55130040  0.90604359     0.00500
Br360      Br  0.93988009  0.41231289  0.85829442    -0.03900
Br361      Br  0.05333174  0.44260605  0.93127390     0.00600
Br362      Br  0.98034827  0.49877216  0.83683883    -0.03200
Br363      Br  0.95703185  0.54110075  0.90498706    -0.04100
Br364      Br  0.85565843  0.42922407  0.85093768    -0.00100
C365        C  0.74868251  0.49633138  0.19392452     0.01300
C366        C  0.77149626  0.51381532  0.20884142     0.04200
C367        C  0.77265953  0.50470896  0.23181541    -0.11900
C368        C  0.75240031  0.47719290  0.24007282     0.23500
C369        C  0.73078370  0.45883744  0.22531667    -0.12500
C370        C  0.72842956  0.46847244  0.20253200     0.04900
C371        C  0.75285094  0.46780474  0.26439850     0.27300
C372        C  0.77858222  0.44569679  0.27314139    -0.13200
C373        C  0.77777046  0.43547594  0.29592423     0.05400
C374        C  0.75045493  0.44656254  0.31007060    -0.09100
C375        C  0.72418136  0.46804093  0.30091848     0.06200
C376        C  0.72599926  0.47928652  0.27844403    -0.13500
Br377      Br  0.70442898  0.41996620  0.23663400    -0.05600
Br378      Br  0.80372092  0.54842851  0.19808252     0.00100
Br379      Br  0.81512293  0.40736975  0.30751397     0.00500
Br380      Br  0.69151532  0.51060065  0.26664007    -0.03900
Br381      Br  0.69640678  0.44295161  0.18391264     0.00600
Br382      Br  0.80219474  0.52980663  0.25223031    -0.03200
Br383      Br  0.81487488  0.42936859  0.25364704    -0.04100
Br384      Br  0.68381420  0.48027675  0.31834435    -0.00100
C385        C  0.76906287  0.53460619  0.94069987     0.01300
C386        C  0.79092343  0.51590553  0.95537659     0.04200
C387        C  0.78784413  0.51977770  0.97874989    -0.11900
C388        C  0.76275339  0.54219705  0.98768885     0.23500
C389        C  0.74175225  0.56184390  0.97303044    -0.12500
C390        C  0.74501716  0.55816694  0.94959889     0.04900
C391        C  0.75669425  0.54255527  0.01240667     0.27300
C392        C  0.73596732  0.51675885  0.02226874    -0.13200
C393        C  0.73245990  0.51469605  0.04574935     0.05400
C394        C  0.75118428  0.53763954  0.05994061    -0.09100
C395        C  0.76977238  0.56532118  0.04970883     0.06200
C396        C  0.77246835  0.56754459  0.02608258    -0.13500
Br397      Br  0.70720298  0.59232367  0.98513471    -0.05600
Br398      Br  0.82502097  0.48461950  0.94347571     0.00100
Br399      Br  0.69953612  0.48149760  0.05764581     0.00500
Br400      Br  0.79838196  0.60452198  0.01213856    -0.03900
Br401      Br  0.71460570  0.58331695  0.92972760     0.00600
Br402      Br  0.81693694  0.49314211  0.99871543    -0.03200
Br403      Br  0.71271465  0.48369182  0.00326470    -0.04100
Br404      Br  0.79198757  0.60074454  0.06725459    -0.00100
C405        C  0.13587194  0.44139217  0.20293601     0.01300
C406        C  0.10598434  0.43592126  0.21625169     0.04200
C407        C  0.10639769  0.44443553  0.23918932    -0.11900
C408        C  0.13649575  0.45869837  0.24900787     0.26700
C409        C  0.16658388  0.46351826  0.23591554    -0.12500
C410        C  0.16630196  0.45501346  0.21296248     0.04900
C411        C  0.13599097  0.46955018  0.27295958     0.27300
C412        C  0.12334837  0.50218346  0.27868284    -0.13200
C413        C  0.12062141  0.51204580  0.30136147     0.05400
C414        C  0.13207391  0.48951310  0.31892330    -0.09100
C415        C  0.14545146  0.45655650  0.31267398     0.06200
C416        C  0.14703866  0.44687192  0.28991044    -0.13500
Br417      Br  0.20812651  0.48198538  0.24957358    -0.05600
Br418      Br  0.06349088  0.41905410  0.20290633     0.00100
Br419      Br  0.09946323  0.55622599  0.30713086     0.00500
Br420      Br  0.16452766  0.40214386  0.28150146    -0.03900
Br421      Br  0.20809653  0.46138994  0.19551312     0.00600
Br422      Br  0.06549222  0.43712483  0.25729494    -0.03200
Br423      Br  0.10983968  0.53350032  0.25489907    -0.04100
Br424      Br  0.16221376  0.42300587  0.33430545    -0.00100
C425        C  0.12964270  0.40773561  0.06936720     0.01300
C426        C  0.11543757  0.43313127  0.05492955     0.04200
C427        C  0.11712414  0.42917021  0.03148258    -0.11900
C428        C  0.13240583  0.39960476  0.02222092     0.23500
C429        C  0.14565568  0.37377865  0.03653385    -0.12500
C430        C  0.14462525  0.37791872  0.06000431     0.04900
C431        C  0.13607919  0.39663173  0.99742357     0.27300
C432        C  0.10957210  0.38146792  0.98443998    -0.13200
C433        C  0.11233738  0.38051454  0.96083179     0.05400
C434        C  0.14111139  0.39631217  0.94998014    -0.09100
C435        C  0.16897185  0.40876032  0.96330570     0.06200
C436        C  0.16622828  0.40925479  0.98683970    -0.13500
Br437      Br  0.16605645  0.33310681  0.02376758    -0.05600
Br438      Br  0.09266203  0.47311529  0.06708289     0.00100
Br439      Br  0.07652898  0.35716497  0.94397020     0.00500
Br440      Br  0.20362558  0.42782002  0.00477807    -0.03900
Br441      Br  0.16626210  0.34379912  0.07907765     0.00600
Br442      Br  0.09912514  0.46459954  0.01184199    -0.03200
Br443      Br  0.06900168  0.36288746  0.99921576    -0.04100
Br444      Br  0.21238568  0.42274057  0.94965977    -0.00100
C445        C  0.03373421  0.45837417  0.13344250     0.01300
C446        C  0.01033411  0.44162929  0.11877083     0.04200
C447        C  0.97473542  0.44992587  0.11893764    -0.11900
C448        C  0.96218332  0.47544559  0.13345468     0.23500
C449        C  0.98552526  0.49275789  0.14780105    -0.12500
C450        C  0.02119471  0.48414747  0.14789523     0.04900
C451        C  0.92451290  0.48440369  0.13304711     0.27300
C452        C  0.91188235  0.50783815  0.11687566    -0.13200
C453        C  0.87596025  0.51432724  0.11514211     0.05400
C454        C  0.85234409  0.49764559  0.12970745    -0.09100
C455        C  0.86510502  0.47502933  0.14640001     0.06200
C456        C  0.90105791  0.46821399  0.14793328    -0.13500
Br457      Br  0.96829719  0.52791335  0.16750745    -0.05600
Br458      Br  0.02709086  0.40789874  0.09778301     0.00100
Br459      Br  0.85910482  0.54519795  0.09219252     0.00500
Br460      Br  0.91834243  0.43665603  0.17038503    -0.03900
Br461      Br  0.05234647  0.50630197  0.16872702     0.00600
Br462      Br  0.94279183  0.42601827  0.09941428    -0.03200
Br463      Br  0.94404758  0.53085210  0.09698399    -0.04100
Br464      Br  0.83358855  0.45486147  0.16797267    -0.00100
C465        C  0.52588246  0.25585051  0.38559545     0.01300
C466        C  0.55606025  0.26065379  0.39878533     0.04200
C467        C  0.57626315  0.29061263  0.39631637    -0.11900
C468        C  0.56571092  0.31681103  0.38135568     0.23500
C469        C  0.53369591  0.31367542  0.36991848    -0.12500
C470        C  0.51398232  0.28300883  0.37179234     0.04900
C471        C  0.59051035  0.34527457  0.37611030     0.27300
C472        C  0.59662343  0.37165750  0.39176498    -0.13200
C473        C  0.62672945  0.39238201  0.39004283     0.05400
C474        C  0.65019587  0.38747127  0.37215117    -0.09100
C475        C  0.64149573  0.36405878  0.35499110     0.06200
C476        C  0.61217794  0.34255885  0.35718742    -0.13500
Br477      Br  0.51807611  0.35073161  0.35082130    -0.05600
Br478      Br  0.57030915  0.22581130  0.42015780     0.00100
Br479      Br  0.63746913  0.42438730  0.41365877     0.00500
Br480      Br  0.60357256  0.30714682  0.33527796    -0.03900
Br481      Br  0.47250511  0.27715243  0.35403402     0.00600
Br482      Br  0.61998983  0.29447909  0.41219960    -0.03200
Br483      Br  0.56511501  0.37720014  0.41656979    -0.04100
Br484      Br  0.67039891  0.36066673  0.32864627    -0.00100
C485        C  0.35024925  0.68428836  0.38621458     0.01300
C486        C  0.36189630  0.65564436  0.37393207     0.04200
C487        C  0.34240029  0.62480978  0.37415909    -0.11900
C488        C  0.31124073  0.62270111  0.38650057     0.23500
C489        C  0.30120343  0.65033140  0.40017973    -0.12500
C490        C  0.32075913  0.68088959  0.40018714     0.04900
C491        C  0.28628242  0.59405130  0.38281896     0.27300
C492        C  0.26451773  0.59512457  0.36379657    -0.13200
C493        C  0.23592400  0.57274945  0.36230540     0.05400
C494        C  0.22762004  0.55072078  0.38042658    -0.09100
C495        C  0.25120756  0.54723514  0.39846456     0.06200
C496        C  0.28082154  0.56869510  0.39948632    -0.13500
Br497      Br  0.25916101  0.64727777  0.41781954    -0.05600
Br498      Br  0.40265793  0.65935114  0.35532754     0.00100
Br499      Br  0.20740789  0.57291802  0.33556208     0.00500
Br500      Br  0.31234168  0.56564787  0.42459969    -0.03900
Br501      Br  0.30653362  0.71818378  0.41939309     0.00600
Br502      Br  0.35688050  0.58602446  0.35652705    -0.03200
Br503      Br  0.27156556  0.62972537  0.34082120    -0.04100
Br504      Br  0.24154119  0.51569721  0.42278822    -0.00100
C505        C  0.46008926  0.05866898  0.38401412     0.01300
C506        C  0.47553233  0.03727369  0.36769452     0.04200
C507        C  0.47055723  0.00143564  0.36848975    -0.11900
C508        C  0.44771359  0.98673907  0.38429145     0.23500
C509        C  0.43073185  0.00807020  0.39985005    -0.12500
C510        C  0.43745892  0.04383017  0.40007336     0.04900
C511        C  0.44021048  0.94911621  0.38360194     0.27300
C512        C  0.41892120  0.93586391  0.36642791    -0.13200
C513        C  0.41234887  0.90030609  0.36523191     0.05400
C514        C  0.42501428  0.87785896  0.38209714    -0.09100
C515        C  0.44641808  0.89111202  0.39930433     0.06200
C516        C  0.45476061  0.92651573  0.39966148    -0.13500
Br517      Br  0.39826689  0.98807771  0.42089150    -0.05600
Br518      Br  0.50169471  0.05682627  0.34300904     0.00100
Br519      Br  0.38718039  0.88234460  0.33974536     0.00500
Br520      Br  0.48610626  0.94422605  0.42213537    -0.03900
Br521      Br  0.41677015  0.07172729  0.42308937     0.00600
Br522      Br  0.49561505  0.97218740  0.34808400    -0.03200
Br523      Br  0.39806086  0.96667060  0.34472362    -0.04100
Br524      Br  0.46239670  0.86154630  0.42329521    -0.00100
C525        C  0.52561017  0.25613873  0.63721335     0.01300
C526        C  0.52680629  0.27451035  0.61675483     0.04200
C527        C  0.54849105  0.30372408  0.61472293    -0.11900
C528        C  0.56933123  0.31395435  0.63299631     0.23500
C529        C  0.56441585  0.29833875  0.65414291    -0.12500
C530        C  0.54233606  0.26963015  0.65626250     0.04900
C531        C  0.60220282  0.33320128  0.62895327     0.27300
C532        C  0.63181643  0.31418354  0.62326116    -0.13200
C533        C  0.66484707  0.32968347  0.62341699     0.05400
C534        C  0.66859624  0.36562383  0.62803299    -0.09100
C535        C  0.63813320  0.38495460  0.63271286     0.06200
C536        C  0.60521155  0.36858634  0.63334710    -0.13500
Br537      Br  0.59175246  0.31325627  0.67946617    -0.05600
Br538      Br  0.50243840  0.25719434  0.59087286     0.00100
Br539      Br  0.70391313  0.29916301  0.61828722     0.00500
Br540      Br  0.56398811  0.39399126  0.64104134    -0.03900
Br541      Br  0.53720800  0.24680514  0.68488374     0.00600
Br542      Br  0.55325892  0.32718724  0.58632903    -0.03200
Br543      Br  0.62695821  0.26571151  0.61613151    -0.04100
Br544      Br  0.64071144  0.43306353  0.64042584    -0.00100
C545        C  0.51399988  0.15020067  0.57067776     0.01300
C546        C  0.48960827  0.13104342  0.55800957     0.04200
C547        C  0.49138982  0.13086881  0.53442256    -0.11900
C548        C  0.51775415  0.14941087  0.52323553     0.23500
C549        C  0.54311200  0.16714865  0.53582273    -0.12500
C550        C  0.54126541  0.16763688  0.55946013     0.04900
C551        C  0.51711884  0.15226055  0.49827264     0.27300
C552        C  0.53267192  0.12691788  0.48483847    -0.13200
C553        C  0.52942166  0.12841505  0.46123526     0.05400
C554        C  0.51098141  0.15575285  0.45087135    -0.09100
C555        C  0.49741910  0.18227931  0.46447029     0.06200
C556        C  0.49976589  0.18005117  0.48800150    -0.13500
Br557      Br  0.57972846  0.19167386  0.52044362    -0.05600
Br558      Br  0.45404151  0.10406319  0.57285609     0.00100
Br559      Br  0.54876959  0.09182884  0.44352064     0.00500
Br560      Br  0.47819316  0.21463200  0.50641571    -0.03900
Br561      Br  0.57486731  0.19414363  0.57617686     0.00600
Br562      Br  0.45704065  0.10598903  0.51724047    -0.03200
Br563      Br  0.55764210  0.08969368  0.49904150    -0.04100
Br564      Br  0.47709363  0.22296992  0.45108979    -0.00100
C565        C  0.37280552  0.67920089  0.63868788     0.01300
C566        C  0.37425341  0.65805512  0.61957232     0.04200
C567        C  0.35394972  0.62782133  0.61863748    -0.11900
C568        C  0.33178742  0.61910206  0.63660117     0.23500
C569        C  0.33319144  0.63828640  0.65654837    -0.12500
C570        C  0.35376684  0.66822429  0.65761232     0.04900
C571        C  0.30223905  0.59498566  0.63304467     0.27300
C572        C  0.27219573  0.60737334  0.62219839    -0.13200
C573        C  0.24211765  0.58690392  0.62121812     0.05400
C574        C  0.24111748  0.55444528  0.63209147    -0.09100
C575        C  0.27208244  0.54091187  0.64138610     0.06200
C576        C  0.30266495  0.56118554  0.64175960    -0.13500
Br577      Br  0.30447978  0.62520308  0.68171204    -0.05600
Br578      Br  0.40062883  0.67244475  0.59366388     0.00100
Br579      Br  0.20276829  0.60322606  0.60399810     0.00500
Br580      Br  0.34492211  0.54342103  0.65479021    -0.03900
Br581      Br  0.35479562  0.69509998  0.68471744     0.00600
Br582      Br  0.35379253  0.59992656  0.59202661    -0.03200
Br583      Br  0.27162740  0.65338116  0.60960353    -0.04100
Br584      Br  0.27268079  0.49550357  0.65441934    -0.00100
C585        C  0.37439889  0.77993910  0.44914377     0.01300
C586        C  0.36251096  0.80901410  0.46090393     0.04200
C587        C  0.36131372  0.80839497  0.48453362    -0.11900
C588        C  0.37221842  0.77889077  0.49648929     0.23500
C589        C  0.38224484  0.74924326  0.48472803    -0.12500
C590        C  0.38304447  0.74962762  0.46115610     0.04900
C591        C  0.37630132  0.77993275  0.52129047     0.27300
C592        C  0.40648834  0.79476942  0.53057925    -0.13200
C593        C  0.41161596  0.79462156  0.55393415     0.05400
C594        C  0.38696348  0.77871795  0.56824342    -0.09100
C595        C  0.35670110  0.76376478  0.55887977     0.06200
C596        C  0.35119658  0.76484594  0.53548870    -0.13500
Br597      Br  0.39629605  0.70846660  0.50103359    -0.05600
Br598      Br  0.35026188  0.85056258  0.44489036     0.00100
Br599      Br  0.45212557  0.81746784  0.56611385     0.00500
Br600      Br  0.30955521  0.74523152  0.52268760    -0.03900
Br601      Br  0.39545287  0.70811346  0.44543667     0.00600
Br602      Br  0.34610522  0.84838442  0.50073588    -0.03200
Br603      Br  0.44129361  0.81474369  0.51108796    -0.04100
Br604      Br  0.32389923  0.73955418  0.57773931    -0.00100
C605        C  0.47721383  0.05463160  0.63561356     0.01300
C606        C  0.44863824  0.04039418  0.64730539     0.04200
C607        C  0.44113676  0.00501908  0.64560790    -0.11900
C608        C  0.46261414  0.98355784  0.63273537     0.23500
C609        C  0.49128843  0.99754638  0.62122267    -0.12500
C610        C  0.49848306  0.03301334  0.62247973     0.04900
C611        C  0.45511119  0.94615962  0.63146121     0.27300
C612        C  0.47089314  0.92324113  0.64676241    -0.13200
C613        C  0.46286054  0.88791207  0.64608745     0.05400
C614        C  0.43814334  0.87560419  0.63056793    -0.09100
C615        C  0.42273865  0.89849793  0.61502746     0.06200
C616        C  0.43169917  0.93363753  0.61523992    -0.13500
Br617      Br  0.52044491  0.96786060  0.60356550    -0.05600
Br618      Br  0.42093159  0.06867466  0.66681715     0.00100
Br619      Br  0.48439623  0.85671413  0.66723371     0.00500
Br620      Br  0.41193279  0.96486568  0.59342490    -0.03900
Br621      Br  0.53667679  0.05178134  0.60524835     0.00600
Br622      Br  0.40140378  0.98567920  0.66092270    -0.03200
Br623      Br  0.50271483  0.94058046  0.66907042    -0.04100
Br624      Br  0.38967960  0.88173619  0.59324884    -0.00100
C625        C  0.54115745  0.66727406  0.88276921     0.01300
C626        C  0.52824169  0.63900100  0.87046759     0.04200
C627        C  0.54815899  0.60859533  0.86880534    -0.11900
C628        C  0.58100528  0.60654233  0.87927309     0.23500
C629        C  0.59243764  0.63364800  0.89302795    -0.12500
C630        C  0.57224040  0.66343131  0.89522544     0.04900
C631        C  0.60558095  0.57809799  0.87430286     0.27300
C632        C  0.61209113  0.55211282  0.89037723    -0.13200
C633        C  0.64260033  0.53210975  0.88902758     0.05400
C634        C  0.66613535  0.53763198  0.87120246    -0.09100
C635        C  0.65668060  0.56003966  0.85345316     0.06200
C636        C  0.62698123  0.58079022  0.85525407    -0.13500
Br637      Br  0.63715869  0.63109076  0.90772919    -0.05600
Br638      Br  0.48443843  0.64220490  0.85498853     0.00100
Br639      Br  0.65354712  0.50008793  0.91282221     0.00500
Br640      Br  0.61768529  0.61552654  0.83273988    -0.03900
Br641      Br  0.58718264  0.69868291  0.91589646     0.00600
Br642      Br  0.53151763  0.57025964  0.85142199    -0.03200
Br643      Br  0.58060298  0.54633784  0.91521011    -0.04100
Br644      Br  0.68525045  0.56338459  0.82689379    -0.00100
C645        C  0.47757877  0.76973616  0.81736194     0.01300
C646        C  0.49080570  0.79733852  0.80408819     0.04200
C647        C  0.48141471  0.80052896  0.78123935    -0.11900
C648        C  0.45734696  0.77749977  0.77164069     0.23500
C649        C  0.44263177  0.75128441  0.78499678    -0.12500
C650        C  0.45329165  0.74672182  0.80744684     0.04900
C651        C  0.44887196  0.77912598  0.74719122     0.27300
C652        C  0.42453760  0.80298468  0.73873129    -0.13200
C653        C  0.41556829  0.80306103  0.71573049     0.05400
C654        C  0.42952391  0.77790254  0.70115376    -0.09100
C655        C  0.45322820  0.75340569  0.71002390     0.06200
C656        C  0.46379396  0.75500542  0.73261208    -0.13500
Br657      Br  0.40753853  0.72147301  0.77222301    -0.05600
Br658      Br  0.51998809  0.83262032  0.81705059     0.00100
Br659      Br  0.38535555  0.83890951  0.70449352     0.00500
Br660      Br  0.49903783  0.72397655  0.74381153    -0.03900
Br661      Br  0.43531575  0.70737507  0.82366661     0.00600
Br662      Br  0.50166414  0.83639726  0.76284041    -0.03200
Br663      Br  0.40326639  0.83536661  0.75886509    -0.04100
Br664      Br  0.46955993  0.71543198  0.69213990    -0.00100
C665        C  0.23762351  0.36416426  0.88610479     0.01300
C666        C  0.26894180  0.37629371  0.87642060     0.04200
C667        C  0.29886713  0.35537252  0.87669834    -0.11900
C668        C  0.29728508  0.32194963  0.88591937     0.23500
C669        C  0.26663543  0.31046291  0.89649269    -0.12500
C670        C  0.23736807  0.33187234  0.89726927     0.04900
C671        C  0.32641490  0.29738358  0.88322948     0.27300
C672        C  0.32924270  0.27879392  0.86312021    -0.13200
C673        C  0.34975936  0.24898234  0.86244900     0.05400
C674        C  0.36653751  0.23708343  0.88205182    -0.09100
C675        C  0.36647364  0.25746721  0.90150176     0.06200
C676        C  0.34693615  0.28804797  0.90190647    -0.13500
Br677      Br  0.26405655  0.26439178  0.90893923    -0.05600
Br678      Br  0.27085521  0.42034087  0.86149159     0.00100
Br679      Br  0.35359175  0.22338577  0.83491728     0.00500
Br680      Br  0.34547918  0.31559821  0.92864108    -0.03900
Br681      Br  0.19749686  0.31690928  0.91457049     0.00600
Br682      Br  0.34185358  0.37173935  0.86382054    -0.03200
Br683      Br  0.30233929  0.29220404  0.83714104    -0.04100
Br684      Br  0.38931381  0.24141363  0.92840293    -0.00100
C685        C  0.42377116  0.14536317  0.81894904     0.01300
C686        C  0.40915162  0.12438783  0.80191463     0.04200
C687        C  0.42094654  0.12729836  0.77953533    -0.11900
C688        C  0.44842043  0.14985927  0.77398904     0.23500
C689        C  0.46339637  0.17036612  0.79079120    -0.12500
C690        C  0.45045828  0.16913696  0.81289467     0.04900
C691        C  0.46069168  0.15297341  0.75028467     0.27300
C692        C  0.48520777  0.12966473  0.74168542    -0.13200
C693        C  0.49501520  0.13130221  0.71888166     0.05400
C694        C  0.48111535  0.15713150  0.70457230    -0.09100
C695        C  0.45814066  0.18175790  0.71372527     0.06200
C696        C  0.44757237  0.17925506  0.73630216    -0.13500
Br697      Br  0.50209187  0.20010919  0.78332553    -0.05600
Br698      Br  0.37407661  0.09027171  0.80879076     0.00100
Br699      Br  0.52575541  0.09648758  0.70732122     0.00500
Br700      Br  0.41457184  0.21166125  0.74819377    -0.03900
Br701      Br  0.46824987  0.20240773  0.83404949     0.00600
Br702      Br  0.39948535  0.10042609  0.75613040    -0.03200
Br703      Br  0.50513529  0.09532809  0.76134566    -0.04100
Br704      Br  0.44200873  0.22017340  0.69582959    -0.00100
C705        C  0.42097536  0.03796551  0.88581514     0.01300
C706        C  0.44606775  0.02538688  0.87081326     0.04200
C707        C  0.45487465  0.99029393  0.87117291    -0.11900
C708        C  0.43837304  0.96769147  0.88638104     0.23500
C709        C  0.41289736  0.98014191  0.90113682    -0.12500
C710        C  0.40397667  0.01520526  0.90074429     0.04900
C711        C  0.44815806  0.93086497  0.88702744     0.27300
C712        C  0.43069121  0.90697542  0.87334172    -0.13200
C713        C  0.44073104  0.87214941  0.87352678     0.05400
C714        C  0.46825315  0.86111469  0.88753375    -0.09100
C715        C  0.48543305  0.88519976  0.90136483     0.06200
C716        C  0.47535809  0.91993459  0.90112526    -0.13500
Br717      Br  0.39058445  0.94903841  0.92200002    -0.05600
Br718      Br  0.46671278  0.05582487  0.84882123     0.00100
Br719      Br  0.41829743  0.84032428  0.85336571     0.00500
Br720      Br  0.49894354  0.95289233  0.91996176    -0.03900
Br721      Br  0.36876403  0.03200971  0.92087782     0.00600
Br722      Br  0.48949792  0.97298764  0.85084641    -0.03200
Br723      Br  0.39352136  0.92241999  0.85400513    -0.04100
Br724      Br  0.52235160  0.87083096  0.92112521    -0.00100
C725        C  0.52091880  0.67082752  0.13948104     0.01300
C726        C  0.54922940  0.66366826  0.15410520     0.04200
C727        C  0.56918194  0.63376361  0.15131068    -0.11900
C728        C  0.56025345  0.60973747  0.13470658     0.23500
C729        C  0.52949127  0.61428910  0.12221045    -0.12500
C730        C  0.51012667  0.64499892  0.12420470     0.04900
C731        C  0.58638747  0.58336894  0.12829070     0.27300
C732        C  0.60985580  0.59119289  0.11087208    -0.13200
C733        C  0.64066480  0.57217602  0.10863881     0.05400
C734        C  0.64847627  0.54540599  0.12393753    -0.09100
C735        C  0.62304228  0.53493866  0.13958504     0.06200
C736        C  0.59196497  0.55390949  0.14174788    -0.13500
Br737      Br  0.51544402  0.57904746  0.10141678    -0.05600
Br738      Br  0.56195111  0.69475698  0.17800725     0.00100
Br739      Br  0.67310648  0.58399320  0.08514977     0.00500
Br740      Br  0.55832313  0.54161020  0.16434791    -0.03900
Br741      Br  0.47120103  0.65219290  0.10426340     0.00600
Br742      Br  0.61077992  0.62706080  0.16908849    -0.03200
Br743      Br  0.60145280  0.63019165  0.09138668    -0.04100
Br744      Br  0.63193018  0.49677846  0.15936747    -0.00100
C745        C  0.45792899  0.77017951  0.20022051     0.01300
C746        C  0.44339123  0.80053682  0.20896251     0.04200
C747        C  0.43143147  0.80137387  0.23127944    -0.11900
C748        C  0.43462571  0.77208438  0.24521093     0.23500
C749        C  0.44849763  0.74149158  0.23635501    -0.12500
C750        C  0.45946839  0.74037342  0.21381266     0.04900
C751        C  0.42518496  0.77406980  0.26943306     0.27300
C752        C  0.44888072  0.78861003  0.28474712    -0.13200
C753        C  0.44047496  0.79063303  0.30766906     0.05400
C754        C  0.40857252  0.77712796  0.31568893    -0.09100
C755        C  0.38474611  0.76264658  0.30027948     0.06200
C756        C  0.39287736  0.76155973  0.27720796    -0.13500
Br757      Br  0.45270722  0.70123007  0.25526055    -0.05600
Br758      Br  0.43913607  0.84085141  0.19019156     0.00100
Br759      Br  0.47233849  0.81362560  0.32775206     0.00500
Br760      Br  0.35984336  0.74290113  0.25612537    -0.03900
Br761      Br  0.47566389  0.69774338  0.20137399     0.00600
Br762      Br  0.41026518  0.84253139  0.24284092    -0.03200
Br763      Br  0.49320288  0.80557795  0.27416957    -0.04100
Br764      Br  0.34181517  0.74238020  0.31076406    -0.00100
C765        C  0.52362300  0.75742670  0.95033156     0.01300
C766        C  0.50480099  0.73291965  0.96338425     0.04200
C767        C  0.50631123  0.73371070  0.98697725    -0.11900
C768        C  0.52737779  0.75802673  0.99791725     0.23500
C769        C  0.54931406  0.77958482  0.98518293    -0.12500
C770        C  0.54787939  0.77911659  0.96149385     0.04900
C771        C  0.52367905  0.76296947  0.02257768     0.27300
C772        C  0.49700605  0.78436732  0.03054816    -0.13200
C773        C  0.49079184  0.78701772  0.05370850     0.05400
C774        C  0.51141405  0.76854552  0.06923605    -0.09100
C775        C  0.53917401  0.74825587  0.06128834     0.06200
C776        C  0.54508986  0.74526805  0.03800377    -0.13500
Br777      Br  0.58045785  0.81062366  0.00051698    -0.05600
Br778      Br  0.47826318  0.69640076  0.94946047     0.00100
Br779      Br  0.45443815  0.81688821  0.06404334     0.00500
Br780      Br  0.58172585  0.71612832  0.02709356    -0.03900
Br781      Br  0.57948131  0.80856225  0.94513594     0.00600
Br782      Br  0.47855533  0.70211654  0.00462688    -0.03200
Br783      Br  0.46850802  0.80967291  0.00948181    -0.04100
Br784      Br  0.56793236  0.72299425  0.08215787    -0.00100
C785        C  0.34512833  0.24432303  0.13368548     0.01300
C786        C  0.31428184  0.24841903  0.12093998     0.04200
C787        C  0.29671323  0.28011891  0.12063108    -0.11900
C788        C  0.30972899  0.30821231  0.13291833     0.23500
C789        C  0.34189631  0.30512157  0.14416078    -0.12500
C790        C  0.35939299  0.27315122  0.14479691     0.04900
C791        C  0.28657265  0.33838752  0.13664983     0.27300
C792        C  0.28149392  0.36348087  0.11974384    -0.13200
C793        C  0.25251927  0.38575360  0.12066254     0.05400
C794        C  0.22926781  0.38367304  0.13893039    -0.09100
C795        C  0.23705365  0.36148588  0.15708685     0.06200
C796        C  0.26515171  0.33853197  0.15577831    -0.13500
Br797      Br  0.36104522  0.34453494  0.15932626    -0.05600
Br798      Br  0.29534213  0.21055567  0.10386777     0.00100
Br799      Br  0.24281449  0.41625129  0.09580846     0.00500
Br800      Br  0.27233999  0.30498417  0.17935696    -0.03900
Br801      Br  0.40088272  0.26822610  0.16271685     0.00600
Br802      Br  0.25353827  0.28462012  0.10420747    -0.03200
Br803      Br  0.31298001  0.36546210  0.09468206    -0.04100
Br804      Br  0.20835395  0.36166504  0.18361396    -0.00100
C805        C  0.46388178  0.15905520  0.31838668     0.01300
C806        C  0.43620219  0.13731062  0.31171799     0.04200
C807        C  0.42551927  0.13616118  0.28906602    -0.11900
C808        C  0.44193217  0.15709996  0.27280954     0.23500
C809        C  0.46961051  0.17883632  0.27944779    -0.12500
C810        C  0.48053454  0.17980674  0.30211519     0.04900
C811        C  0.43041890  0.15568250  0.24874475     0.27300
C812        C  0.44800987  0.13445783  0.23343880    -0.13200
C813        C  0.43712286  0.13275115  0.21082655     0.05400
C814        C  0.40825966  0.15210009  0.20319432    -0.09100
C815        C  0.39052567  0.17323110  0.21856215     0.06200
C816        C  0.40149422  0.17492297  0.24121399    -0.13500
Br817      Br  0.49250273  0.20734889  0.25738670    -0.05600
Br818      Br  0.41333003  0.10814191  0.33352315     0.00100
Br819      Br  0.46140965  0.10293853  0.19043971     0.00500
Br820      Br  0.37710572  0.20382952  0.26205487    -0.03900
Br821      Br  0.51715789  0.21085238  0.31113078     0.00600
Br822      Br  0.38867873  0.10531571  0.28010132    -0.03200
Br823      Br  0.48695594  0.10734829  0.24367688    -0.04100
Br824      Br  0.35244245  0.20143935  0.20830674    -0.00100
C825        C  0.36323235  0.14109223  0.07040151     0.01300
C826        C  0.35120957  0.11022266  0.06054837     0.04200
C827        C  0.34940686  0.10717690  0.03692901    -0.11900
C828        C  0.36051322  0.13453238  0.02292621     0.23500
C829        C  0.37192799  0.16550029  0.03277376    -0.12500
C830        C  0.37262579  0.16901150  0.05629151     0.04900
C831        C  0.36234464  0.13047637  0.99795249     0.27300
C832        C  0.39076418  0.11327554  0.98826627    -0.13200
C833        C  0.39489211  0.11272785  0.96477454     0.05400
C834        C  0.37140539  0.13060713  0.95059856    -0.09100
C835        C  0.34239337  0.14707554  0.96028015     0.06200
C836        C  0.33753136  0.14631107  0.98379774    -0.13500
Br837      Br  0.38834856  0.20272027  0.01392413    -0.05600
Br838      Br  0.33986656  0.07103051  0.07921481     0.00100
Br839      Br  0.43279615  0.08678410  0.95213303     0.00500
Br840      Br  0.29730234  0.16772969  0.99687762    -0.03900
Br841      Br  0.38593204  0.21267624  0.06910264     0.00600
Br842      Br  0.33279126  0.06510186  0.02361327    -0.03200
Br843      Br  0.42508090  0.09166201  0.00733146    -0.04100
Br844      Br  0.31096388  0.17343019  0.94172531    -0.00100
C845        C  0.45679867  0.86956826  0.13133730     0.01300
C846        C  0.47798853  0.89475905  0.14224484     0.04200
C847        C  0.46975936  0.92999195  0.14073638    -0.11900
C848        C  0.43982140  0.94087625  0.12928078     0.23500
C849        C  0.41841522  0.91650851  0.11863744    -0.12500
C850        C  0.42655582  0.88105964  0.11967933     0.04900
C851        C  0.42951801  0.97776028  0.13037999     0.27300
C852        C  0.41204185  0.98977728  0.14949853    -0.13200
C853        C  0.40481083  0.02506385  0.15181289     0.05400
C854        C  0.41454825  0.04869263  0.13479414    -0.09100
C855        C  0.43148382  0.03647666  0.11540479     0.06200
C856        C  0.43909519  0.00113201  0.11329325    -0.13500
Br857      Br  0.37766859  0.93222249  0.10264050    -0.05600
Br858      Br  0.51712941  0.88260434  0.16123349     0.00100
Br859      Br  0.38259136  0.04087684  0.17884552     0.00500
Br860      Br  0.46232842  0.98444875  0.08691576    -0.03900
Br861      Br  0.39506824  0.84939654  0.10513489     0.00600
Br862      Br  0.49932413  0.96410798  0.15476044    -0.03200
Br863      Br  0.39805470  0.95750632  0.17257513    -0.04100
Br864      Br  0.44243762  0.06758306  0.09102861    -0.00100
loop_ 
_geom_bond_atom_site_label_1 
_geom_bond_atom_site_label_2 
_geom_bond_distance 
_geom_bond_site_symmetry_2 
_ccdc_geom_bond_type 
O1           Ni9   1.935       .  S
O1           C11   1.286       .  A
O2           Ni9   1.940       .  S
O2           C12   1.286       .  A
O3           Ni9   1.921       .  S
O3           C13   1.280       .  A
O4           Ni9   1.913       .  S
O4           C14   1.280       .  A
O5          Ni10   1.944       .  S
O5           C14   1.287       .  A
O6          Ni10   1.946       .  S
O6           C13   1.287       .  A
O7          Ni10   1.907       .  S
O7           C12   1.279       .  A
O8          Ni10   1.906       .  S
O8           C11   1.278       .  A
Ni9         Ni10   2.385       .  S
C11         C854   1.485       .  S
C12         C785   1.490       .  S
C13         C814   1.496       .  S
C14         C825   1.495       .  S
O15         Ni23   1.942       .  S
O15          C25   1.286       .  A
O16         Ni23   1.941       .  S
O16          C26   1.286       .  A
O17         Ni23   1.915       .  S
O17          C27   1.278       .  A
O18         Ni23   1.921       .  S
O18          C28   1.281       .  A
O19         Ni24   1.929       .  S
O19          C28   1.283       .  A
O20         Ni24   1.941       .  S
O20          C27   1.286       .  A
O21         Ni24   1.901       .  S
O21          C26   1.278       .  A
O22         Ni24   1.903       .  S
O22          C25   1.276       .  A
Ni23        Ni24   2.380       .  S
C25         C845   1.509       .  S
C26         C725   1.497       .  S
C27         C745   1.484       .  S
C28         C774   1.488       .  S
O29         Ni37   1.922       .  S
O29          C39   1.282       .  A
O30         Ni37   1.929       .  S
O30          C40   1.283       .  A
O31         Ni37   1.915       .  S
O31          C41   1.280       .  A
O32         Ni37   1.912       .  S
O32          C42   1.279       .  A
O33         Ni38   1.942       .  S
O33          C42   1.287       .  A
O34         Ni38   1.944       .  S
O34          C41   1.287       .  A
O35         Ni38   1.901       .  S
O35          C40   1.278       .  A
O36         Ni38   1.907       .  S
O36          C39   1.277       .  A
Ni37        Ni38   2.385       .  S
C39         C705   1.471       .  S
C40         C674   1.473       .  S
C41         C834   1.496       .  S
C42         C685   1.505       .  S
O43         Ni51   1.925       .  S
O43          C53   1.283       .  A
O44         Ni51   1.939       .  S
O44          C54   1.285       .  A
O45         Ni51   1.913       .  S
O45          C55   1.280       .  A
O46         Ni51   1.918       .  S
O46          C56   1.281       .  A
O47         Ni52   1.934       .  S
O47          C56   1.285       .  A
O48         Ni52   1.937       .  S
O48          C55   1.284       .  A
O49         Ni52   1.903       .  S
O49          C54   1.279       .  A
O50         Ni52   1.911       .  S
O50          C53   1.279       .  A
Ni51        Ni52   2.381       .  S
C53         C714   1.480       .  S
C54         C625   1.487       .  S
C55         C765   1.505       .  S
C56         C645   1.503       .  S
O57         Ni65   1.921       .  S
O57          C67   1.282       .  A
O58         Ni65   1.927       .  S
O58          C68   1.282       .  A
O59         Ni65   1.913       .  S
O59          C69   1.280       .  A
O60         Ni65   1.915       .  S
O60          C70   1.281       .  A
O61         Ni66   1.930       .  S
O61          C70   1.284       .  A
O62         Ni66   1.928       .  S
O62          C69   1.283       .  A
O63         Ni66   1.909       .  S
O63          C68   1.279       .  A
O64         Ni66   1.911       .  S
O64          C67   1.279       .  A
Ni65        Ni66   2.386       .  S
C67         C614   1.474       .  S
C68         C565   1.477       .  S
C69         C594   1.485       .  S
C70         C654   1.498       .  S
O71         Ni79   1.924       .  S
O71          C81   1.283       .  A
O72         Ni79   1.931       .  S
O72          C82   1.282       .  A
O73         Ni79   1.913       .  S
O73          C83   1.280       .  A
O74         Ni79   1.918       .  S
O74          C84   1.281       .  A
O75         Ni80   1.932       .  S
O75          C84   1.284       .  A
O76         Ni80   1.934       .  S
O76          C83   1.284       .  A
O77         Ni80   1.906       .  S
O77          C82   1.279       .  A
O78         Ni80   1.908       .  S
O78          C81   1.278       .  A
Ni79        Ni80   2.386       .  S
C81         C605   1.481       .  S
C82         C525   1.475       .  S
C83         C545   1.488       .  S
C84         C694   1.496       .  S
O85         Ni93   1.934       .  S
O85          C95   1.285       .  A
O86         Ni93   1.932       .  S
O86          C96   1.284       .  A
O87         Ni93   1.914       .  S
O87          C97   1.280       .  A
O88         Ni93   1.909       .  S
O88          C98   1.279       .  A
O89         Ni94   1.930       .  S
O89          C98   1.284       .  A
O90         Ni94   1.933       .  S
O90          C97   1.284       .  A
O91         Ni94   1.902       .  S
O91          C96   1.278       .  A
O92         Ni94   1.903       .  S
O92          C95   1.278       .  A
Ni93        Ni94   2.387       .  S
C95         C514   1.483       .  S
C96         C485   1.480       .  S
C97         C754   1.490       .  S
C98         C585   1.483       .  S
O99        Ni107   1.937       .  S
O99         C109   1.286       .  A
O100       Ni107   1.943       .  S
O100        C110   1.286       .  A
O101       Ni107   1.918       .  S
O101        C111   1.280       .  A
O102       Ni107   1.915       .  S
O102        C112   1.280       .  A
O103       Ni108   1.937       .  S
O103        C112   1.285       .  A
O104       Ni108   1.942       .  S
O104        C111   1.286       .  A
O105       Ni108   1.899       .  S
O105        C110   1.277       .  A
O106       Ni108   1.899       .  S
O106        C109   1.277       .  A
Ni107      Ni108   2.384       .  S
C109        C505   1.488       .  S
C110        C465   1.483       .  S
C111        C805   1.492       .  S
C112        C554   1.495       .  S
O113       Ni121   1.940       .  S
O113        C123   1.286       .  A
O114       Ni121   1.940       .  S
O114        C124   1.285       .  A
O115       Ni121   1.916       .  S
O115        C125   1.280       .  A
O116       Ni121   1.917       .  S
O116        C126   1.280       .  A
O117       Ni122   1.930       .  S
O117        C126   1.284       .  A
O118       Ni122   1.930       .  S
O118        C125   1.284       .  A
O119       Ni122   1.905       .  S
O119        C124   1.279       .  A
O120       Ni122   1.907       .  S
O120        C123   1.278       .  A
Ni121      Ni122   2.386       .  S
C123        C445   1.485       .  S
C124        C794   1.486       .  S
C125        C425   1.488       .  S
C126        C405   1.488       .  S
O127       Ni135   1.931       .  S
O127        C137   1.284       .  A
O128       Ni135   1.946       .  S
O128        C138   1.286       .  A
O129       Ni135   1.912       .  S
O129        C139   1.279       .  A
O130       Ni135   1.911       .  S
O130        C140   1.278       .  A
O131       Ni136   1.939       .  S
O131        C140   1.286       .  A
O132       Ni136   1.939       .  S
O132        C139   1.285       .  A
O133       Ni136   1.904       .  S
O133        C138   1.278       .  A
O134       Ni136   1.914       .  S
O134        C137   1.279       .  A
Ni135      Ni136   2.380       .  S
C137        C454   1.483       .  S
C138        C734   1.485       .  S
C139        C394   1.509       .  S
C140        C365   1.505       .  S
O141       Ni149   1.926       .  S
O141        C151   1.281       .  A
O142       Ni149   1.934       .  S
O142        C152   1.284       .  A
O143       Ni149   1.922       .  S
O143        C153   1.282       .  A
O144       Ni149   1.916       .  S
O144        C154   1.282       .  A
O145       Ni150   1.933       .  S
O145        C154   1.283       .  A
O146       Ni150   1.930       .  S
O146        C153   1.283       .  A
O147       Ni150   1.901       .  S
O147        C152   1.278       .  A
O148       Ni150   1.911       .  S
O148        C151   1.279       .  A
Ni149      Ni150   2.382       .  S
C151        C345   1.472       .  S
C152        C665   1.486       .  S
C153        C325   1.508       .  S
C154        C434   1.497       .  S
O155       Ni163   1.934       .  S
O155        C165   1.286       .  A
O156       Ni163   1.939       .  S
O156        C166   1.285       .  A
O157       Ni163   1.910       .  S
O157        C167   1.279       .  A
O158       Ni163   1.910       .  S
O158        C168   1.279       .  A
O159       Ni164   1.936       .  S
O159        C168   1.285       .  A
O160       Ni164   1.934       .  S
O160        C167   1.285       .  A
O161       Ni164   1.898       .  S
O161        C166   1.277       .  A
O162       Ni164   1.900       .  S
O162        C165   1.276       .  A
Ni163      Ni164   2.387       .  S
C165        C354   1.482       .  S
C166        C634   1.484       .  S
C167        C305   1.486       .  S
C168        C385   1.483       .  S
O169       Ni177   1.941       .  S
O169        C179   1.287       .  A
O170       Ni177   1.951       .  S
O170        C180   1.289       .  A
O171       Ni177   1.908       .  S
O171        C181   1.277       .  A
O172       Ni177   1.903       .  S
O172        C182   1.276       .  A
O173       Ni178   1.948       .  S
O173        C182   1.288       .  A
O174       Ni178   1.935       .  S
O174        C181   1.285       .  A
O175       Ni178   1.886       .  S
O175        C180   1.271       .  A
O176       Ni178   1.894       .  S
O176        C179   1.275       .  A
Ni177      Ni178   2.378       .  S
C179        C285   1.482       .  S
C180        C534   1.504       .  S
C181        C314   1.506       .  S
C182        C265   1.484       .  S
O183       Ni191   1.929       .  S
O183        C193   1.282       .  A
O184       Ni191   1.935       .  S
O184        C194   1.284       .  A
O185       Ni191   1.926       .  S
O185        C195   1.282       .  A
O186       Ni191   1.919       .  S
O186        C196   1.283       .  A
O187       Ni192   1.927       .  S
O187        C196   1.281       .  A
O188       Ni192   1.926       .  S
O188        C195   1.283       .  A
O189       Ni192   1.906       .  S
O189        C194   1.280       .  A
O190       Ni192   1.916       .  S
O190        C193   1.280       .  A
Ni191      Ni192   2.383       .  S
C193        C294   1.479       .  S
C194        C574   1.487       .  S
C195        C334   1.501       .  S
C196        C245   1.497       .  S
O197       Ni205   1.922       .  S
O197        C207   1.281       .  A
O198       Ni205   1.934       .  S
O198        C208   1.284       .  A
O199       Ni205   1.916       .  S
O199        C209   1.278       .  A
O200       Ni205   1.916       .  S
O200        C210   1.281       .  A
O201       Ni206   1.933       .  S
O201        C210   1.285       .  A
O202       Ni206   1.928       .  S
O202        C209   1.283       .  A
O203       Ni206   1.904       .  S
O203        C208   1.278       .  A
O204       Ni206   1.908       .  S
O204        C207   1.278       .  A
Ni205      Ni206   2.380       .  S
C207        C225   1.470       .  S
C208        C474   1.485       .  S
C209        C274   1.513       .  S
C210        C374   1.497       .  S
O211       Ni219   1.924       .  S
O211        C221   1.283       .  A
O212       Ni219   1.930       .  S
O212        C222   1.283       .  A
O213       Ni219   1.910       .  S
O213        C223   1.280       .  A
O214       Ni219   1.914       .  S
O214        C224   1.279       .  A
O215       Ni220   1.933       .  S
O215        C224   1.282       .  A
O216       Ni220   1.932       .  S
O216        C223   1.284       .  A
O217       Ni220   1.897       .  S
O217        C222   1.278       .  A
O218       Ni220   1.902       .  S
O218        C221   1.277       .  A
Ni219      Ni220   2.381       .  S
C221        C234   1.475       .  S
C222        C494   1.477       .  S
C223        C254   1.482       .  S
C224        C414   1.517       .  S
C225        C226   1.408       .  A
C225        C230   1.411       .  A
C226        C227   1.406       .  A
C226       Br238   1.930       .  S
C227        C228   1.410       .  A
C227       Br242   1.929       .  S
C228        C231   1.478       .  S
C228        C229   1.406       .  A
C229        C230   1.404       .  A
C229       Br237   1.931       .  S
C230       Br241   1.927       .  S
C231        C232   1.408       .  A
C231        C236   1.406       .  A
C232        C233   1.406   1_655  A
C232       Br243   1.930       .  S
C233        C234   1.411       .  A
C233       Br239   1.931       .  S
C234        C235   1.415       .  A
C235        C236   1.405   1_455  A
C235       Br244   1.933       .  S
C236       Br240   1.931       .  S
C245        C246   1.420       .  A
C245        C250   1.417       .  A
C246        C247   1.413       .  A
C246       Br258   1.930       .  S
C247        C248   1.408       .  A
C247       Br262   1.930       .  S
C248        C251   1.488       .  S
C248        C249   1.407       .  A
C249        C250   1.407       .  A
C249       Br257   1.931       .  S
C250       Br261   1.934       .  S
C251        C252   1.408       .  A
C251        C256   1.410       .  A
C252        C253   1.406       .  A
C252       Br263   1.931       .  S
C253        C254   1.413       .  A
C253       Br259   1.932       .  S
C254        C255   1.412       .  A
C255        C256   1.412       .  A
C255       Br264   1.929       .  S
C256       Br260   1.928       .  S
C265        C266   1.411       .  A
C265        C270   1.414       .  A
C266        C267   1.409       .  A
C266       Br278   1.918       .  S
C267        C268   1.408       .  A
C267       Br282   1.931       .  S
C268        C271   1.491       .  S
C268        C269   1.409       .  A
C269        C270   1.410       .  A
C269       Br277   1.930       .  S
C270       Br281   1.930       .  S
C271        C272   1.404       .  A
C271        C276   1.405       .  A
C272        C273   1.413       .  A
C272       Br283   1.933       .  S
C273        C274   1.429       .  A
C273       Br279   1.936       .  S
C274        C275   1.431       .  A
C275        C276   1.411       .  A
C275       Br284   1.938       .  S
C276       Br280   1.937       .  S
C285        C286   1.417       .  A
C285        C290   1.412       .  A
C286        C287   1.405       .  A
C286       Br298   1.934       .  S
C287        C288   1.406       .  A
C287       Br302   1.932       .  S
C288        C291   1.485       .  S
C288        C289   1.410       .  A
C289        C290   1.411       .  A
C289       Br297   1.929       .  S
C290       Br301   1.930       .  S
C291        C292   1.411       .  A
C291        C296   1.406       .  A
C292        C293   1.411   1_655  A
C292       Br303   1.928       .  S
C293        C294   1.410       .  A
C293       Br299   1.928       .  S
C294        C295   1.409       .  A
C295        C296   1.404   1_455  A
C295       Br304   1.920       .  S
C296       Br300   1.931       .  S
C305        C306   1.415       .  A
C305        C310   1.412       .  A
C306        C307   1.409       .  A
C306       Br318   1.933       .  S
C307        C308   1.409       .  A
C307       Br322   1.931       .  S
C308        C311   1.492       .  S
C308        C309   1.411       .  A
C309        C310   1.411       .  A
C309       Br317   1.930       .  S
C310       Br321   1.930       .  S
C311        C312   1.407       .  A
C311        C316   1.405       .  A
C312        C313   1.413       .  A
C312       Br323   1.932       .  S
C313        C314   1.423       .  A
C313       Br319   1.933       .  S
C314        C315   1.427       .  A
C315        C316   1.410       .  A
C315       Br324   1.936       .  S
C316       Br320   1.935       .  S
C325        C326   1.424       .  A
C325        C330   1.424       .  A
C326        C327   1.413       .  A
C326       Br338   1.934       .  S
C327        C328   1.409       .  A
C327       Br342   1.933       .  S
C328        C331   1.497       .  S
C328        C329   1.407       .  A
C329        C330   1.412       .  A
C329       Br337   1.934       .  S
C330       Br341   1.932       .  S
C331        C332   1.410       .  A
C331        C336   1.409       .  A
C332        C333   1.413       .  A
C332       Br343   1.933       .  S
C333        C334   1.421       .  A
C333       Br339   1.929       .  S
C334        C335   1.420       .  A
C335        C336   1.411       .  A
C335       Br344   1.934       .  S
C336       Br340   1.932       .  S
C345        C346   1.407       .  A
C345        C350   1.406       .  A
C346        C347   1.408       .  A
C346       Br358   1.928       .  S
C347        C348   1.412   1_455  A
C347       Br362   1.929   1_455  S
C348        C351   1.485       .  S
C348        C349   1.409       .  A
C349        C350   1.405   1_655  A
C349       Br357   1.930       .  S
C350       Br361   1.924       .  S
C351        C352   1.407       .  A
C351        C356   1.410       .  A
C352        C353   1.406       .  A
C352       Br363   1.932       .  S
C353        C354   1.417       .  A
C353       Br359   1.933       .  S
C354        C355   1.412       .  A
C355        C356   1.409       .  A
C355       Br364   1.930       .  S
C356       Br360   1.930       .  S
C365        C366   1.422       .  A
C365        C370   1.425       .  A
C366        C367   1.414       .  A
C366       Br378   1.933       .  S
C367        C368   1.408       .  A
C367       Br382   1.930       .  S
C368        C371   1.494       .  S
C368        C369   1.406       .  A
C369        C370   1.410       .  A
C369       Br377   1.935       .  S
C370       Br381   1.932       .  S
C371        C372   1.410       .  A
C371        C376   1.407       .  A
C372        C373   1.414       .  A
C372       Br383   1.931       .  S
C373        C374   1.419       .  A
C373       Br379   1.931       .  S
C374        C375   1.419       .  A
C375        C376   1.409       .  A
C375       Br384   1.933       .  S
C376       Br380   1.931       .  S
C385        C386   1.412       .  A
C385        C390   1.411       .  A
C386        C387   1.409       .  A
C386       Br398   1.931       .  S
C387        C388   1.410       .  A
C387       Br402   1.931       .  S
C388        C391   1.494   1_556  S
C388        C389   1.411       .  A
C389        C390   1.412       .  A
C389       Br397   1.928       .  S
C390       Br401   1.927       .  S
C391        C392   1.405       .  A
C391        C396   1.407       .  A
C392        C393   1.409       .  A
C392       Br403   1.934       .  S
C393        C394   1.426       .  A
C393       Br399   1.937       .  S
C394        C395   1.424       .  A
C395        C396   1.416       .  A
C395       Br404   1.930       .  S
C396       Br400   1.931       .  S
C405        C406   1.414       .  A
C405        C410   1.416       .  A
C406        C407   1.410       .  A
C406       Br418   1.931       .  S
C407        C408   1.410       .  A
C407       Br422   1.930       .  S
C408        C411   1.493       .  S
C408        C409   1.409       .  A
C409        C410   1.411       .  A
C409       Br417   1.930       .  S
C410       Br421   1.932       .  S
C411        C412   1.404       .  A
C411        C416   1.403       .  A
C412        C413   1.413       .  A
C412       Br423   1.934       .  S
C413        C414   1.431       .  A
C413       Br419   1.935       .  S
C414        C415   1.434       .  A
C415        C416   1.413       .  A
C415       Br424   1.939       .  S
C416       Br420   1.935       .  S
C425        C426   1.416       .  A
C425        C430   1.415       .  A
C426        C427   1.410       .  A
C426       Br438   1.932       .  S
C427        C428   1.409       .  A
C427       Br442   1.931       .  S
C428        C431   1.492   1_554  S
C428        C429   1.409       .  A
C429        C430   1.411       .  A
C429       Br437   1.929       .  S
C430       Br441   1.931       .  S
C431        C432   1.409       .  A
C431        C436   1.407       .  A
C432        C433   1.414       .  A
C432       Br443   1.930       .  S
C433        C434   1.419       .  A
C433       Br439   1.931       .  S
C434        C435   1.418       .  A
C435        C436   1.409       .  A
C435       Br444   1.934       .  S
C436       Br440   1.931   1_556  S
C445        C446   1.414       .  A
C445        C450   1.413       .  A
C446        C447   1.408   1_455  A
C446       Br458   1.932       .  S
C447        C448   1.408       .  A
C447       Br462   1.931       .  S
C448        C451   1.491       .  S
C448        C449   1.411       .  A
C449        C450   1.413   1_655  A
C449       Br457   1.928       .  S
C450       Br461   1.929       .  S
C451        C452   1.409       .  A
C451        C456   1.411       .  A
C452        C453   1.409       .  A
C452       Br463   1.930       .  S
C453        C454   1.412       .  A
C453       Br459   1.927       .  S
C454        C455   1.412       .  A
C455        C456   1.411       .  A
C455       Br464   1.931       .  S
C456       Br460   1.928       .  S
C465        C466   1.413       .  A
C465        C470   1.411       .  A
C466        C467   1.404       .  A
C466       Br478   1.933       .  S
C467        C468   1.409       .  A
C467       Br482   1.934       .  S
C468        C471   1.490       .  S
C468        C469   1.412       .  A
C469        C470   1.414       .  A
C469       Br477   1.927       .  S
C470       Br481   1.927       .  S
C471        C472   1.410       .  A
C471        C476   1.410       .  A
C472        C473   1.412       .  A
C472       Br483   1.929       .  S
C473        C474   1.414       .  A
C473       Br479   1.928       .  S
C474        C475   1.413       .  A
C475        C476   1.407       .  A
C475       Br484   1.933       .  S
C476       Br480   1.931       .  S
C485        C486   1.411       .  A
C485        C490   1.415       .  A
C486        C487   1.411       .  A
C486       Br498   1.928       .  S
C487        C488   1.410       .  A
C487       Br502   1.928       .  S
C488        C491   1.484       .  S
C488        C489   1.408       .  A
C489        C490   1.403       .  A
C489       Br497   1.934       .  S
C490       Br501   1.935       .  S
C491        C492   1.409       .  A
C491        C496   1.411       .  A
C492        C493   1.402       .  A
C492       Br503   1.932       .  S
C493        C494   1.411       .  A
C493       Br499   1.934       .  S
C494        C495   1.412       .  A
C495        C496   1.411       .  A
C495       Br504   1.929       .  S
C496       Br500   1.928       .  S
C505        C506   1.417       .  A
C505        C510   1.415       .  A
C506        C507   1.405       .  A
C506       Br518   1.935       .  S
C507        C508   1.407   1_545  A
C507       Br522   1.932   1_545  S
C508        C511   1.490       .  S
C508        C509   1.411   1_565  A
C509        C510   1.412       .  A
C509       Br517   1.930   1_545  S
C510       Br521   1.930       .  S
C511        C512   1.409       .  A
C511        C516   1.411       .  A
C512        C513   1.406       .  A
C512       Br523   1.932       .  S
C513        C514   1.414       .  A
C513       Br519   1.934       .  S
C514        C515   1.413       .  A
C515        C516   1.412       .  A
C515       Br524   1.930       .  S
C516       Br520   1.930       .  S
C525        C526   1.411       .  A
C525        C530   1.408       .  A
C526        C527   1.411       .  A
C526       Br538   1.928       .  S
C527        C528   1.410       .  A
C527       Br542   1.927       .  S
C528        C531   1.486       .  S
C528        C529   1.409       .  A
C529        C530   1.405       .  A
C529       Br537   1.930       .  S
C530       Br541   1.929       .  S
C531        C532   1.403       .  A
C531        C536   1.406       .  A
C532        C533   1.404       .  A
C532       Br543   1.942       .  S
C533        C534   1.432       .  A
C533       Br539   1.943       .  S
C534        C535   1.423       .  A
C535        C536   1.415       .  A
C535       Br544   1.930       .  S
C536       Br540   1.929       .  S
C545        C546   1.416       .  A
C545        C550   1.414       .  A
C546        C547   1.409       .  A
C546       Br558   1.933       .  S
C547        C548   1.409       .  A
C547       Br562   1.931       .  S
C548        C551   1.493       .  S
C548        C549   1.410       .  A
C549        C550   1.413       .  A
C549       Br557   1.928       .  S
C550       Br561   1.930       .  S
C551        C552   1.410       .  A
C551        C556   1.407       .  A
C552        C553   1.414       .  A
C552       Br563   1.929       .  S
C553        C554   1.417       .  A
C553       Br559   1.929       .  S
C554        C555   1.418       .  A
C555        C556   1.409       .  A
C555       Br564   1.933       .  S
C556       Br560   1.932       .  S
C565        C566   1.411       .  A
C565        C570   1.410       .  A
C566        C567   1.410       .  A
C566       Br578   1.930       .  S
C567        C568   1.410       .  A
C567       Br582   1.928       .  S
C568        C571   1.486       .  S
C568        C569   1.409       .  A
C569        C570   1.406       .  A
C569       Br577   1.930       .  S
C570       Br581   1.931       .  S
C571        C572   1.408       .  A
C571        C576   1.409       .  A
C572        C573   1.403       .  A
C572       Br583   1.934       .  S
C573        C574   1.415       .  A
C573       Br579   1.934       .  S
C574        C575   1.414       .  A
C575        C576   1.413       .  A
C575       Br584   1.923       .  S
C576       Br580   1.928       .  S
C585        C586   1.412       .  A
C585        C590   1.415       .  A
C586        C587   1.411       .  A
C586       Br598   1.929       .  S
C587        C588   1.411       .  A
C587       Br602   1.929       .  S
C588        C591   1.488       .  S
C588        C589   1.408       .  A
C589        C590   1.407       .  A
C589       Br597   1.932       .  S
C590       Br601   1.933       .  S
C591        C592   1.408       .  A
C591        C596   1.410       .  A
C592        C593   1.407       .  A
C592       Br603   1.933       .  S
C593        C594   1.415       .  A
C593       Br599   1.933       .  S
C594        C595   1.414       .  A
C595        C596   1.411       .  A
C595       Br604   1.930       .  S
C596       Br600   1.929       .  S
C605        C606   1.412       .  A
C605        C610   1.416       .  A
C606        C607   1.408       .  A
C606       Br618   1.931       .  S
C607        C608   1.409   1_545  A
C607       Br622   1.930   1_545  S
C608        C611   1.483       .  S
C608        C609   1.406       .  A
C609        C610   1.407   1_565  A
C609       Br617   1.931       .  S
C610       Br621   1.933       .  S
C611        C612   1.409       .  A
C611        C616   1.408       .  A
C612        C613   1.407       .  A
C612       Br623   1.929       .  S
C613        C614   1.410       .  A
C613       Br619   1.931       .  S
C614        C615   1.411       .  A
C615        C616   1.407       .  A
C615       Br624   1.930       .  S
C616       Br620   1.930       .  S
C625        C626   1.413       .  A
C625        C630   1.414       .  A
C626        C627   1.414       .  A
C626       Br638   1.923       .  S
C627        C628   1.410       .  A
C627       Br642   1.927       .  S
C628        C631   1.489       .  S
C628        C629   1.408       .  A
C629        C630   1.403       .  A
C629       Br637   1.931       .  S
C630       Br641   1.934       .  S
C631        C632   1.410       .  A
C631        C636   1.408       .  A
C632        C633   1.412       .  A
C632       Br643   1.927       .  S
C633        C634   1.413       .  A
C633       Br639   1.928       .  S
C634        C635   1.414       .  A
C635        C636   1.405       .  A
C635       Br644   1.934       .  S
C636       Br640   1.931       .  S
C645        C646   1.422       .  A
C645        C650   1.421       .  A
C646        C647   1.414       .  A
C646       Br658   1.933       .  S
C647        C648   1.408       .  A
C647       Br662   1.931       .  S
C648        C651   1.495       .  S
C648        C649   1.407       .  A
C649        C650   1.410       .  A
C649       Br657   1.934       .  S
C650       Br661   1.931       .  S
C651        C652   1.410       .  A
C651        C656   1.408       .  A
C652        C653   1.414       .  A
C652       Br663   1.931       .  S
C653        C654   1.420       .  A
C653       Br659   1.933       .  S
C654        C655   1.419       .  A
C655        C656   1.408       .  A
C655       Br664   1.934       .  S
C656       Br660   1.932       .  S
C665        C666   1.415       .  A
C665        C670   1.416       .  A
C666        C667   1.411       .  A
C666       Br678   1.925       .  S
C667        C668   1.408       .  A
C667       Br682   1.929       .  S
C668        C671   1.484       .  S
C668        C669   1.408       .  A
C669        C670   1.403       .  A
C669       Br677   1.936       .  S
C670       Br681   1.936       .  S
C671        C672   1.409       .  A
C671        C676   1.410       .  A
C672        C673   1.405       .  A
C672       Br683   1.931       .  S
C673        C674   1.410       .  A
C673       Br679   1.932       .  S
C674        C675   1.409       .  A
C675        C676   1.408       .  A
C675       Br684   1.929       .  S
C676       Br680   1.928       .  S
C685        C686   1.421       .  A
C685        C690   1.424       .  A
C686        C687   1.415       .  A
C686       Br698   1.931       .  S
C687        C688   1.409       .  A
C687       Br702   1.931       .  S
C688        C691   1.496       .  S
C688        C689   1.406       .  A
C689        C690   1.411       .  A
C689       Br697   1.932       .  S
C690       Br701   1.935       .  S
C691        C692   1.410       .  A
C691        C696   1.408       .  A
C692        C693   1.414       .  A
C692       Br703   1.930       .  S
C693        C694   1.418       .  A
C693       Br699   1.932       .  S
C694        C695   1.418       .  A
C695        C696   1.411       .  A
C695       Br704   1.932       .  S
C696       Br700   1.931       .  S
C705        C706   1.409       .  A
C705        C710   1.411       .  A
C706        C707   1.406   1_545  A
C706       Br718   1.931       .  S
C707        C708   1.409       .  A
C707       Br722   1.929       .  S
C708        C711   1.481       .  S
C708        C709   1.408       .  A
C709        C710   1.406   1_565  A
C709       Br717   1.930       .  S
C710       Br721   1.931       .  S
C711        C712   1.408       .  A
C711        C716   1.406       .  A
C712        C713   1.408       .  A
C712       Br723   1.930       .  S
C713        C714   1.413       .  A
C713       Br719   1.931       .  S
C714        C715   1.413       .  A
C715        C716   1.405       .  A
C715       Br724   1.925       .  S
C716       Br720   1.932       .  S
C725        C726   1.421       .  A
C725        C730   1.420       .  A
C726        C727   1.406       .  A
C726       Br738   1.936       .  S
C727        C728   1.407       .  A
C727       Br742   1.935       .  S
C728        C731   1.490       .  S
C728        C729   1.408       .  A
C729        C730   1.415       .  A
C729       Br737   1.929       .  S
C730       Br741   1.930       .  S
C731        C732   1.409       .  A
C731        C736   1.410       .  A
C732        C733   1.406       .  A
C732       Br743   1.931       .  S
C733        C734   1.412       .  A
C733       Br739   1.931       .  S
C734        C735   1.411       .  A
C735        C736   1.413       .  A
C735       Br744   1.920       .  S
C736       Br740   1.928       .  S
C745        C746   1.411       .  A
C745        C750   1.411       .  A
C746        C747   1.410       .  A
C746       Br758   1.927       .  S
C747        C748   1.410       .  A
C747       Br762   1.929       .  S
C748        C751   1.494       .  S
C748        C749   1.411       .  A
C749        C750   1.412       .  A
C749       Br757   1.929       .  S
C750       Br761   1.926       .  S
C751        C752   1.408       .  A
C751        C756   1.411       .  A
C752        C753   1.409       .  A
C752       Br763   1.931       .  S
C753        C754   1.416       .  A
C753       Br759   1.933       .  S
C754        C755   1.414       .  A
C755        C756   1.413       .  A
C755       Br764   1.930       .  S
C756       Br760   1.929       .  S
C765        C766   1.423       .  A
C765        C770   1.422       .  A
C766        C767   1.409       .  A
C766       Br778   1.936       .  S
C767        C768   1.405       .  A
C767       Br782   1.932   1_556  S
C768        C771   1.492   1_556  S
C768        C769   1.407       .  A
C769        C770   1.415       .  A
C769       Br777   1.930   1_556  S
C770       Br781   1.929       .  S
C771        C772   1.408       .  A
C771        C776   1.411       .  A
C772        C773   1.407       .  A
C772       Br783   1.932       .  S
C773        C774   1.412       .  A
C773       Br779   1.925       .  S
C774        C775   1.414       .  A
C775        C776   1.414       .  A
C775       Br784   1.929       .  S
C776       Br780   1.928       .  S
C785        C786   1.416       .  A
C785        C790   1.414       .  A
C786        C787   1.407       .  A
C786       Br798   1.934       .  S
C787        C788   1.409       .  A
C787       Br802   1.934       .  S
C788        C791   1.493       .  S
C788        C789   1.411       .  A
C789        C790   1.415       .  A
C789       Br797   1.927       .  S
C790       Br801   1.928       .  S
C791        C792   1.412       .  A
C791        C796   1.409       .  A
C792        C793   1.415       .  A
C792       Br803   1.927       .  S
C793        C794   1.413       .  A
C793       Br799   1.928       .  S
C794        C795   1.412       .  A
C795        C796   1.406       .  A
C795       Br804   1.932       .  S
C796       Br800   1.931       .  S
C805        C806   1.415       .  A
C805        C810   1.411       .  A
C806        C807   1.413       .  A
C806       Br818   1.931       .  S
C807        C808   1.411       .  A
C807       Br822   1.929       .  S
C808        C811   1.503       .  S
C808        C809   1.414       .  A
C809        C810   1.416       .  A
C809       Br817   1.927       .  S
C810       Br821   1.929       .  S
C811        C812   1.410       .  A
C811        C816   1.413       .  A
C812        C813   1.414       .  A
C812       Br823   1.930       .  S
C813        C814   1.415       .  A
C813       Br819   1.930       .  S
C814        C815   1.413       .  A
C815        C816   1.417       .  A
C815       Br824   1.928       .  S
C816       Br820   1.929       .  S
C825        C826   1.415       .  A
C825        C830   1.415       .  A
C826        C827   1.416       .  A
C826       Br838   1.930       .  S
C827        C828   1.413       .  A
C827       Br842   1.928       .  S
C828        C831   1.501   1_554  S
C828        C829   1.411       .  A
C829        C830   1.411       .  A
C829       Br837   1.931       .  S
C830       Br841   1.932       .  S
C831        C832   1.410       .  A
C831        C836   1.413       .  A
C832        C833   1.411       .  A
C832       Br843   1.931   1_556  S
C833        C834   1.417       .  A
C833       Br839   1.933       .  S
C834        C835   1.415       .  A
C835        C836   1.416       .  A
C835       Br844   1.929       .  S
C836       Br840   1.929       .  S
C845        C846   1.430       .  A
C845        C850   1.425       .  A
C846        C847   1.408       .  A
C846       Br858   1.940       .  S
C847        C848   1.403       .  A
C847       Br862   1.936       .  S
C848        C851   1.490       .  S
C848        C849   1.406       .  A
C849        C850   1.414       .  A
C849       Br857   1.932       .  S
C850       Br861   1.932       .  S
C851        C852   1.409       .  A
C851        C856   1.409   1_565  A
C852        C853   1.408   1_565  A
C852       Br863   1.932       .  S
C853        C854   1.415       .  A
C853       Br859   1.932       .  S
C854        C855   1.415       .  A
C855        C856   1.412       .  A
C855       Br864   1.931       .  S
C856       Br860   1.929   1_545  S
