geometry optimzed in LAMMPS
_audit_creation_date              2020-12-01 
_audit_creation_method            'lammps2cif' 
_symmetry_space_group_name_H-M    'P1' 
_symmetry_Int_Tables_number       1 
_symmetry_cell_setting            triclinic 
loop_ 
_symmetry_equiv_pos_as_xyz 
  x,y,z 
_cell_length_a                    53.73424213 
_cell_length_b                    59.58436632434972 
_cell_length_c                    56.74853826056974 
_cell_angle_alpha                 90.0248202665261 
_cell_angle_beta                  89.98101777737917 
_cell_angle_gamma                 89.98937581571447 
loop_ 
_atom_site_label 
_atom_site_type_symbol 
_atom_site_fract_x 
_atom_site_fract_y 
_atom_site_fract_z 
_atom_site_charge 
C1          C  0.06607945  0.69333449  0.94048575     0.81800
N2          N  0.05823671  0.69621922  0.91811410    -0.76500
C3          C  0.03816372  0.68502093  0.90980772     0.84300
N4          N  0.02541084  0.67063836  0.92417076    -0.76400
C5          C  0.03317856  0.66753064  0.94688899     0.84400
N6          N  0.05347481  0.67912808  0.95491797    -0.78100
C7          C  0.88045185  0.69262283  0.94165726     0.81800
N8          N  0.89393213  0.67892353  0.95585410    -0.76500
C9          C  0.91489772  0.66851919  0.94771467     0.84300
N10         N  0.92259874  0.67245803  0.92508500    -0.76400
C11         C  0.90904277  0.68645782  0.91091313     0.84400
N12         N  0.88817743  0.69639056  0.91935509    -0.78100
C13         C  0.91369376  0.68753218  0.14091010     0.81800
N14         N  0.92674798  0.67330044  0.12652904    -0.76500
C15         C  0.91846241  0.66937298  0.10407491     0.84300
N16         N  0.89740656  0.68002149  0.09636923    -0.76400
C17         C  0.88446491  0.69398107  0.11081729     0.84400
N18         N  0.89280600  0.69767852  0.13289529    -0.78100
C19         C  0.04005462  0.68618570  0.13859646     0.81800
N20         N  0.06108347  0.69568489  0.13002066    -0.76500
C21         C  0.06894072  0.69124204  0.10791769     0.84300
N22         N  0.05540645  0.67728248  0.09405701    -0.76400
C23         C  0.03425956  0.66730649  0.10237147     0.84400
N24         N  0.02642782  0.67191815  0.12480065    -0.78100
C25         C  0.91373777  0.53861452  0.14039295     0.81800
N26         N  0.92682863  0.55281584  0.12599574    -0.76500
C27         C  0.91796660  0.55750979  0.10387987     0.84300
N28         N  0.89629822  0.54780152  0.09654423    -0.76400
C29         C  0.88330107  0.53397899  0.11098567     0.84400
N30         N  0.89218742  0.52938022  0.13270336    -0.78100
C31         C  0.88274699  0.53158225  0.94225909     0.81800
N32         N  0.89185854  0.52651453  0.92076296    -0.76500
C33         C  0.91252869  0.53675532  0.91241791     0.84300
N34         N  0.92457580  0.55239343  0.92591121    -0.76400
C35         C  0.91544175  0.55768441  0.94775529     0.84400
N36         N  0.89462013  0.54698009  0.95580794    -0.78100
C37         C  0.06553352  0.53320954  0.94004424     0.81800
N38         N  0.05665962  0.52813202  0.91850157    -0.76500
C39         C  0.03521406  0.53722985  0.91052036     0.84300
N40         N  0.02207379  0.55183652  0.92440591    -0.76400
C41         C  0.03093690  0.55721499  0.94632844     0.84400
N42         N  0.05258616  0.54756336  0.95404532    -0.78100
C43         C  0.03660172  0.53674053  0.13765356     0.81800
N44         N  0.05824308  0.52785372  0.12980784    -0.76500
C45         C  0.06689899  0.53269568  0.10809019     0.84300
N46         N  0.05358681  0.54645863  0.09381273    -0.76400
C47         C  0.03182226  0.55585126  0.10143957     0.84400
N48         N  0.02319182  0.55083914  0.12350717    -0.78100
O49         O  0.02482871  0.65642781  0.98560925    -0.73700
O50         O  0.00183837  0.63970347  0.95662342    -0.52600
C51         C  0.01896926  0.65341196  0.96387834     0.80000
O52         O  0.02187581  0.56610378  0.06280793    -0.58300
O53         O  0.00232400  0.58527950  0.09241760    -0.51300
C54         C  0.01748773  0.57002741  0.08470706     0.72100
O55         O  0.02211348  0.56806199  0.98496004    -0.72800
O56         O  0.00047556  0.58611338  0.95596364    -0.53400
C57         C  0.01671869  0.57153398  0.96320380     0.78100
O58         O  0.02375201  0.65748001  0.06383573    -0.58000
O59         O  0.00356121  0.63876857  0.09332923    -0.51100
C60         C  0.01935829  0.65350956  0.08571646     0.74700
Zr61       Zr  0.01127745  0.64532495  0.02474797     2.54700
O62         O  0.05653432  0.64295457  0.02609621    -0.78600
O63         O  0.01019854  0.68622807  0.02516776    -0.92000
Zr64       Zr  0.01022381  0.58017291  0.02422883     2.64700
O65         O  0.05512960  0.58550371  0.02425050    -0.96900
O66         O  0.01319216  0.53938324  0.02317854    -0.79000
O67         O  0.01091842  0.61285460  0.00053305    -0.82300
O68         O  0.01172111  0.61254234  0.04837041    -2.17100
O69         O  0.92751685  0.65923273  0.06511593    -0.65700
O70         O  0.94816498  0.64004264  0.09401075    -0.50300
C71         C  0.93254256  0.65521557  0.08689400     0.73000
O72         O  0.92377337  0.56940183  0.98627813    -0.58600
O73         O  0.94558684  0.58669282  0.95682725    -0.50600
C74         C  0.92917701  0.57248045  0.96441714     0.74800
O75         O  0.92604220  0.56846965  0.06493885    -0.70000
O76         O  0.94814699  0.58613583  0.09391675    -0.48700
C77         C  0.93183406  0.57169767  0.08671173     0.76200
O78         O  0.92511902  0.65854428  0.98649383    -0.65400
O79         O  0.94546232  0.63993197  0.95694314    -0.52600
C80         C  0.92961222  0.65465743  0.96456067     0.74600
Zr81       Zr  0.93816063  0.64636379  0.02562256     2.77500
O82         O  0.89301971  0.64260979  0.02632886    -0.96100
O83         O  0.93729564  0.68724229  0.02595217    -0.76900
Zr84       Zr  0.93689150  0.58122763  0.02538437     2.70100
O85         O  0.89178569  0.58509785  0.02613582    -0.78200
O86         O  0.93501312  0.54042281  0.02393876    -0.97300
Zr87       Zr  0.97357361  0.61331640  0.97737679     2.21500
Zr88       Zr  0.97500329  0.61290016  0.07252625     2.11100
O89         O  0.93748402  0.61368953  0.04947644    -2.46000
O90         O  0.93679723  0.61388660  0.00153084    -0.78000
O91         O  0.97507446  0.64597710  0.04850658    -0.70200
O92         O  0.97318563  0.58027510  0.00162439    -2.31100
O93         O  0.97444432  0.64634340  0.00177371    -2.27300
O94         O  0.97392545  0.58007399  0.04803091    -0.71900
H95         H  0.02658277  0.61222853  0.05798477     0.80100
H96         H  0.97282585  0.56692445  0.99200955     0.81200
H97         H  0.92309736  0.61380349  0.05965855     0.83400
H98         H  0.97459631  0.65968858  0.99217028     0.81000
H99         H  0.00162309  0.53465882  0.01053952     0.44000
H100        H  0.94781665  0.53535571  0.03529436     0.43000
H101        H  0.88551149  0.56948704  0.02686903     0.42700
H102        H  0.88937225  0.63277262  0.03994627     0.40600
H103        H  0.94924832  0.69179874  0.01356710     0.43700
H104        H  0.00787291  0.69081694  0.00855247     0.38500
H105        H  0.06255247  0.65392703  0.01430567     0.44600
H106        H  0.06195961  0.57054994  0.02022458     0.41000
H107        H  0.88692666  0.65758529  0.03122548     0.46000
H108        H  0.02746103  0.69076293  0.02899295     0.44700
H109        H  0.05850104  0.59481324  0.01015703     0.44800
H110        H  0.91894875  0.53649023  0.03143080     0.45200
C111        C  0.55894759  0.02996966  0.11345531     0.81800
N112        N  0.54488746  0.04449030  0.10076001    -0.76500
C113        C  0.53351209  0.03773601  0.08045437     0.84300
N114        N  0.53681925  0.01616738  0.07268984    -0.76400
C115        C  0.55122823  0.00170754  0.08551455     0.84400
N116        N  0.56210766  0.00876285  0.10569337    -0.78100
C117        C  0.56007976  0.03043122  0.93788702     0.81800
N118        N  0.54537996  0.04481628  0.95018144    -0.76500
C119        C  0.53276017  0.03777278  0.96974271     0.84300
N120        N  0.53551886  0.01601311  0.97718188    -0.76400
C121        C  0.55050116  0.00167545  0.96471788     0.84400
N122        N  0.56259159  0.00906986  0.94531825    -0.78100
C123        C  0.55212606  0.22400507  0.96486342     0.81800
N124        N  0.53755870  0.20956749  0.97747031    -0.76500
C125        C  0.53434053  0.18802931  0.96969808     0.84300
N126        N  0.54588901  0.18125146  0.94945653    -0.76400
C127        C  0.56019545  0.19578454  0.93696004     0.84400
N128        N  0.56332889  0.21696217  0.94483518    -0.78100
C129        C  0.55582150  0.22280376  0.08772151     0.81800
N130        N  0.56715484  0.21425764  0.10705307    -0.76500
C131        C  0.56382652  0.19261120  0.11328535     0.84300
N132        N  0.54913805  0.17922032  0.09991690    -0.76400
C133        C  0.53736163  0.18740598  0.08042548     0.84400
N134        N  0.54077614  0.20941378  0.07421379    -0.78100
C135        C  0.39893102  0.22652309  0.96693295     0.81800
N136        N  0.41312502  0.21162975  0.97936579    -0.76500
C137        C  0.41528081  0.18994551  0.97167433     0.84300
N138        N  0.40299801  0.18348842  0.95168335    -0.76400
C139        C  0.38905912  0.19843683  0.93930588     0.84400
N140        N  0.38707429  0.21978511  0.94709229    -0.78100
C141        C  0.38973516  0.03467749  0.93574842     0.81800
N142        N  0.40365138  0.04845217  0.94936009    -0.76500
C143        C  0.41528727  0.04049973  0.96897890     0.84300
N144        N  0.41236173  0.01847280  0.97518293    -0.76400
C145        C  0.39813421  0.00471915  0.96138457     0.84400
N146        N  0.38694174  0.01296106  0.94186891    -0.78100
C147        C  0.39055884  0.03062178  0.11498432     0.81800
N148        N  0.38687658  0.00963227  0.10676728    -0.76500
C149        C  0.39728263  0.00282633  0.08627505     0.84300
N150        N  0.41168197  0.01740588  0.07357120    -0.76400
C151        C  0.41552868  0.03877236  0.08178001     0.84400
N152        N  0.40462631  0.04526067  0.10241322    -0.78100
C153        C  0.39857108  0.22612062  0.08642258     0.81800
N154        N  0.38824875  0.21933279  0.10695717    -0.76500
C155        C  0.39223144  0.19844362  0.11530300     0.84300
N156        N  0.40649837  0.18388925  0.10280962    -0.76400
C157        C  0.41733436  0.19031216  0.08212985     0.84400
N158        N  0.41321009  0.21161258  0.07379302    -0.78100
O159        O  0.52365521  0.07528785  0.07197776    -0.73700
O160        O  0.50306756  0.04815639  0.05122292    -0.52600
C161        C  0.51905851  0.05461938  0.06684494     0.80000
O162        O  0.42727770  0.15248228  0.07377316    -0.58300
O163        O  0.44745930  0.17964023  0.05264839    -0.51300
C164        C  0.43171179  0.17321510  0.06851336     0.72100
O165        O  0.42606692  0.07641671  0.07352467    -0.72800
O166        O  0.44556355  0.04893569  0.05225454    -0.53400
C167        C  0.43006678  0.05564863  0.06819553     0.78100
O168        O  0.52618331  0.15058884  0.07067879    -0.58000
O169        O  0.50552301  0.17873317  0.05156980    -0.51100
C170        C  0.52200515  0.17148107  0.06636019     0.74700
Zr171      Zr  0.51198176  0.11316562  0.05969628     2.54700
O172        O  0.51093882  0.11419280  0.10258026    -0.78600
O173        O  0.55721901  0.11198029  0.05732985    -0.92000
Zr174      Zr  0.43921103  0.11424215  0.06181217     2.64700
O175        O  0.44335708  0.11231458  0.10450479    -0.96900
O176        O  0.39393967  0.11475776  0.06318217    -0.79000
O177        O  0.47524281  0.09120508  0.06093360    -0.82300
O178        O  0.47602978  0.13620742  0.06127478    -2.17100
O179        O  0.52386625  0.15061765  0.97835012    -0.65700
O180        O  0.50406127  0.17825374  0.99914741    -0.50300
C181        C  0.51972554  0.17137835  0.98339921     0.73000
O182        O  0.42552302  0.07743073  0.97890925    -0.58600
O183        O  0.44501856  0.04940771  0.99925958    -0.50600
C184        C  0.42961353  0.05660111  0.98350122     0.74800
O185        O  0.42475244  0.15222265  0.98018411    -0.70000
O186        O  0.44614260  0.17921343  0.00041201    -0.48700
C187        C  0.42972985  0.17285499  0.98509287     0.76200
O188        O  0.52221820  0.07536146  0.97802938    -0.65400
O189        O  0.50220996  0.04814684  0.99912721    -0.52600
C190        C  0.51793607  0.05464345  0.98325232     0.74600
Zr191      Zr  0.51023115  0.11326960  0.99037257     2.77500
O192        O  0.50642103  0.11400737  0.94763700    -0.96100
O193        O  0.55552747  0.11231007  0.99028185    -0.76900
Zr194      Zr  0.43733532  0.11461707  0.99248479     2.70100
O195        O  0.43519256  0.11500394  0.94962190    -0.78200
O196        O  0.39237848  0.11335108  0.99762109    -0.97300
Zr197      Zr  0.47405584  0.06899692  0.02569057     2.21500
Zr198      Zr  0.47546330  0.15873322  0.02615980     2.11100
O199        O  0.47422941  0.13632907  0.99104613    -2.46000
O200        O  0.47332070  0.09153459  0.99074071    -0.78000
O201        O  0.51182925  0.13545517  0.02510136    -0.70200
O202        O  0.43752217  0.09220675  0.02695316    -2.31100
O203        O  0.51123379  0.09108773  0.02498211    -2.27300
O204        O  0.43816552  0.13670493  0.02722981    -0.71900
H205        H  0.47665826  0.14559228  0.07513452     0.80100
H206        H  0.42265067  0.08306611  0.02713689     0.81200
H207        H  0.47402833  0.14574622  0.97720144     0.83400
H208        H  0.52571365  0.08149257  0.02466834     0.81000
H209        H  0.38901918  0.12535970  0.05059184     0.44000
H210        H  0.38795541  0.12820661  0.00422496     0.43000
H211        H  0.44709075  0.12679251  0.94470729     0.42700
H212        H  0.52143155  0.10611782  0.94180954     0.40600
H213        H  0.56006084  0.10368756  0.00454671     0.43700
H214        H  0.56100119  0.09863187  0.04757892     0.38500
H215        H  0.49789156  0.10323826  0.10698747     0.44600
H216        H  0.45338409  0.12562305  0.10883823     0.41000
H217        H  0.49250211  0.10364495  0.94413680     0.46000
H218        H  0.56265753  0.10773799  0.07338950     0.44700
H219        H  0.42647118  0.11564037  0.11055961     0.44800
H220        H  0.38565930  0.11358412  0.98137942     0.45200
C221        C  0.06762202  0.02868308  0.61062334     0.81800
N222        N  0.05972523  0.00738005  0.61366171    -0.76500
C223        C  0.03965367  0.99949647  0.60187446     0.84300
N224        N  0.02700204  0.01331409  0.58672189    -0.76400
C225        C  0.03487273  0.03501726  0.58354925     0.84400
N226        N  0.05514780  0.04249329  0.59573472    -0.78100
C227        C  0.88559556  0.02915799  0.61153281     0.81800
N228        N  0.89285450  0.00759935  0.61358647    -0.76500
C229        C  0.91216544  0.99955342  0.60085383     0.84300
N230        N  0.92475116  0.01341181  0.58574708    -0.76400
C231        C  0.91747484  0.03534878  0.58345789     0.84400
N232        N  0.89794124  0.04305030  0.59661347    -0.78100
C233        C  0.91205349  0.22079314  0.59967078     0.81800
N234        N  0.89019491  0.21390305  0.60907230    -0.76500
C235        C  0.88148004  0.19299810  0.60504700     0.84300
N236        N  0.89500758  0.17857958  0.59161840    -0.76400
C237        C  0.91702002  0.18519699  0.58173666     0.84400
N238        N  0.92564061  0.20646096  0.58590403    -0.78100
C239        C  0.03752456  0.22088521  0.60135368     0.81800
N240        N  0.02416880  0.20659932  0.58733635    -0.76500
C241        C  0.03323459  0.18554596  0.58279734     0.84300
N242        N  0.05535123  0.17913061  0.59250408    -0.76400
C243        C  0.06854142  0.19350745  0.60617260     0.84400
N244        N  0.05949121  0.21418551  0.61059125    -0.78100
C245        C  0.91325100  0.21943730  0.44900064     0.81800
N246        N  0.89240022  0.21175979  0.43829638    -0.76500
C247        C  0.88442608  0.19051560  0.44170648     0.84300
N248        N  0.89762453  0.17656348  0.45590466    -0.76400
C249        C  0.91860640  0.18389565  0.46712246     0.84400
N250        N  0.92653785  0.20550822  0.46352848    -0.78100
C251        C  0.88652668  0.02678123  0.44244855     0.81800
N252        N  0.89831955  0.04099979  0.45743813    -0.76500
C253        C  0.91829969  0.03391819  0.47033955     0.84300
N254        N  0.92660659  0.01232558  0.46772656    -0.76400
C255        C  0.91462939  0.99814424  0.45253974     0.84400
N256        N  0.89484968  0.00555168  0.44002967    -0.78100
C257        C  0.06963871  0.03026352  0.44340643     0.81800
N258        N  0.05689157  0.04369488  0.45845653    -0.76500
C259        C  0.03658294  0.03579951  0.47033755     0.84300
N260        N  0.02886471  0.01418730  0.46657464    -0.76400
C261        C  0.04183040  0.00080237  0.45128106     0.84400
N262        N  0.06192792  0.00901755  0.43983351    -0.78100
C263        C  0.03843925  0.21938174  0.44859403     0.81800
N264        N  0.02537891  0.20564533  0.46348804    -0.76500
C265        C  0.03465840  0.18484612  0.46896427     0.84300
N266        N  0.05668744  0.17811943  0.45923457    -0.76400
C267        C  0.06959358  0.19193661  0.44468512     0.84400
N268        N  0.06027772  0.21232623  0.43934579    -0.78100
O269        O  0.02732945  0.07272234  0.48113279    -0.73700
O270        O  0.00512022  0.04498998  0.49935060    -0.52600
C271        C  0.02202265  0.05196265  0.48480665     0.80000
O272        O  0.02470372  0.14808631  0.57287258    -0.58300
O273        O  0.00279350  0.17534229  0.55352387    -0.51300
C274        C  0.01912406  0.16876554  0.56877262     0.72100
O275        O  0.02633670  0.07233572  0.57232109    -0.72800
O276        O  0.00413669  0.04459609  0.55410903    -0.53400
C277        C  0.02084351  0.05149953  0.56883158     0.78100
O278        O  0.02593378  0.14753041  0.47957763    -0.58000
O279        O  0.00376424  0.17505974  0.49820354    -0.51100
C280        C  0.02039789  0.16829047  0.48330007     0.74700
Zr281      Zr  0.01304285  0.11000380  0.49195903     2.54700
O282        O  0.05833570  0.11004555  0.49356316    -0.78600
O283        O  0.01119912  0.10941510  0.44907038    -0.92000
Zr284      Zr  0.01293666  0.11017857  0.56082009     2.64700
O285        O  0.05829057  0.11156980  0.56096481    -0.96900
O286        O  0.01058893  0.11040122  0.60366884    -0.79000
O287        O  0.01356013  0.08754399  0.52647568    -0.82300
O288        O  0.01337886  0.13261432  0.52623686    -2.17100
O289        O  0.92790085  0.14664776  0.47789364    -0.65700
O290        O  0.94871653  0.17453894  0.49731335    -0.50300
C291        C  0.93285820  0.16750803  0.48178623     0.73000
O292        O  0.92605799  0.07256610  0.57242331    -0.58600
O293        O  0.94837156  0.04495405  0.55404167    -0.50600
C294        C  0.93157769  0.05179529  0.56879127     0.74800
O295        O  0.92680982  0.14769574  0.57261054    -0.70000
O296        O  0.94802681  0.17509923  0.55282045    -0.48700
C297        C  0.93174642  0.16843226  0.56811537     0.76200
O298        O  0.92639365  0.07140948  0.48080590    -0.65400
O299        O  0.94887988  0.04420618  0.49957046    -0.52600
C300        C  0.93206181  0.05072803  0.48476021     0.74600
Zr301      Zr  0.93952287  0.10925683  0.49189373     2.77500
O302        O  0.89458398  0.11087629  0.49717596    -0.96100
O303        O  0.93656757  0.10660484  0.44917135    -0.76900
Zr304      Zr  0.93960174  0.10997919  0.56057085     2.70100
O305        O  0.89437956  0.11018546  0.55766308    -0.78200
O306        O  0.94119454  0.10874084  0.60343299    -0.97300
Zr307      Zr  0.97663057  0.06483616  0.52658990     2.21500
Zr308      Zr  0.97601082  0.15480757  0.52565221     2.11100
O309        O  0.93904932  0.13220830  0.52595095    -2.46000
O310        O  0.93939182  0.08699041  0.52645244    -0.78000
O311        O  0.97608262  0.13172620  0.49105246    -0.70200
O312        O  0.97637614  0.08790935  0.56125760    -2.31100
O313        O  0.97655654  0.08748858  0.49160124    -2.27300
O314        O  0.97615980  0.13229551  0.56069259    -0.71900
H315        H  0.02798220  0.14207121  0.52622664     0.80100
H316        H  0.97632186  0.07867998  0.57523979     0.81200
H317        H  0.92435987  0.14154881  0.52579223     0.83400
H318        H  0.97667401  0.07804983  0.47778082     0.81000
H319        H  0.00270052  0.09593908  0.60789163     0.44000
H320        H  0.95518023  0.11876690  0.60769183     0.43000
H321        H  0.88863030  0.11875955  0.57158609     0.42700
H322        H  0.88796648  0.11382086  0.48119023     0.40600
H323        H  0.95164385  0.09822778  0.44434471     0.43700
H324        H  0.00216443  0.09543762  0.44509891     0.38500
H325        H  0.06239053  0.10218897  0.50844662     0.44600
H326        H  0.06284138  0.11189993  0.57787363     0.41000
H327        H  0.88951990  0.09525379  0.50067127     0.46000
H328        H  0.02855728  0.10652939  0.44404703     0.44700
H329        H  0.06375152  0.09659807  0.55543287     0.44800
H330        H  0.92610429  0.11685598  0.60869559     0.45200
C331        C  0.99551492  0.43127858  0.27875718    -0.09300
C332        C  0.97315415  0.44174049  0.27347434    -0.03100
C333        C  0.95061912  0.43482126  0.28297595    -0.09200
C334        C  0.95021983  0.41663144  0.29924290     0.11700
C335        C  0.97308079  0.40569380  0.30511230    -0.01000
C336        C  0.99586635  0.41295705  0.29465502     0.11500
C337        C  0.01809652  0.40181124  0.30043527    -0.11000
C338        C  0.01823909  0.38401207  0.31652498    -0.11000
C339        C  0.99614556  0.37670810  0.32731883     0.11500
C340        C  0.97321129  0.38749944  0.32143900    -0.01000
C341        C  0.92805964  0.40906721  0.30979320    -0.11200
C342        C  0.92818223  0.39113795  0.32587751    -0.11200
C343        C  0.95047533  0.38018204  0.33198705     0.11700
C344        C  0.95112625  0.36216776  0.34842576    -0.09200
C345        C  0.97374176  0.35221455  0.35398686    -0.03100
C346        C  0.99606586  0.35895591  0.34395395    -0.09300
H347        H  0.03557871  0.40693215  0.29260918     0.09000
H348        H  0.03582062  0.37600845  0.32057251     0.09000
H349        H  0.91049805  0.41708601  0.30569991     0.09200
H350        H  0.91069883  0.38591707  0.33362791     0.09200
H351        H  0.97327438  0.45570596  0.26111295     0.05600
H352        H  0.97397852  0.33862285  0.36676821     0.05600
C353        C  0.27249229  0.09446537  0.24791680    -0.09300
C354        C  0.28206008  0.11477529  0.23984279    -0.03100
C355        C  0.27528130  0.13518241  0.24998183    -0.09200
C356        C  0.25818197  0.13557099  0.26892706     0.11700
C357        C  0.24794366  0.11499886  0.27716338    -0.01000
C358        C  0.25509173  0.09431069  0.26658560     0.11500
C359        C  0.24476667  0.07418229  0.27500823    -0.11000
C360        C  0.22769564  0.07427658  0.29354374    -0.11000
C361        C  0.22051342  0.09448681  0.30435459     0.11500
C362        C  0.23071725  0.11508406  0.29613600    -0.01000
C363        C  0.25116274  0.15576579  0.27991761    -0.11200
C364        C  0.23426643  0.15584321  0.29865205    -0.11200
C365        C  0.22378788  0.13573634  0.30695543     0.11700
C366        C  0.20657514  0.13546566  0.32583088    -0.09200
C367        C  0.19678247  0.11514260  0.33356428    -0.03100
C368        C  0.20345757  0.09482287  0.32327676    -0.09300
H369        H  0.24983282  0.05820209  0.26727756     0.09000
H370        H  0.22021068  0.05836957  0.29944794     0.09000
H371        H  0.25876778  0.17165630  0.27410488     0.09200
H372        H  0.22944309  0.17177353  0.30663150     0.09200
H373        H  0.29535839  0.11467857  0.22540283     0.05600
H374        H  0.18350098  0.11513509  0.34802790     0.05600
C375        C  0.21275392  0.42963465  0.04400722    -0.09300
C376        C  0.20361215  0.43734634  0.02254206    -0.03100
C377        C  0.21233099  0.42913313  0.00110007    -0.09200
C378        C  0.23134705  0.41261629  0.00085391     0.11700
C379        C  0.24093677  0.40450652  0.02266660    -0.01000
C380        C  0.23152119  0.41299052  0.04439195     0.11500
C381        C  0.24107247  0.40460948  0.06570898    -0.11000
C382        C  0.25966570  0.38821634  0.06582786    -0.11000
C383        C  0.26935495  0.37970600  0.04464238     0.11500
C384        C  0.25991453  0.38786249  0.02278017    -0.01000
C385        C  0.24103078  0.40400379  0.97965944    -0.11200
C386        C  0.25983109  0.38770410  0.97976280    -0.11200
C387        C  0.26947835  0.37939744  0.00106602     0.11700
C388        C  0.28842001  0.36282432  0.00161815    -0.09200
C389        C  0.29718701  0.35508679  0.02317044    -0.03100
C390        C  0.28825229  0.36320221  0.04447883    -0.09300
H391        H  0.23418804  0.41071046  0.08246603     0.09000
H392        H  0.26647196  0.38223436  0.08265235     0.09000
H393        H  0.23412049  0.40988952  0.96283776     0.09200
H394        H  0.26676132  0.38156445  0.96303827     0.09200
H395        H  0.18910278  0.45007426  0.02253061     0.05600
H396        H  0.31164691  0.34230458  0.02339615     0.05600
C397        C  0.67563643  0.08596876  0.25157654    -0.09300
C398        C  0.66654866  0.10639243  0.24342878    -0.03100
C399        C  0.67414276  0.12671497  0.25307938    -0.09200
C400        C  0.69144939  0.12691750  0.27183800     0.11700
C401        C  0.70150175  0.10621224  0.27997914    -0.01000
C402        C  0.69371542  0.08558188  0.26967287     0.11500
C403        C  0.70425487  0.06537660  0.27765577    -0.11000
C404        C  0.72221590  0.06535044  0.29546976    -0.11000
C405        C  0.72993845  0.08550226  0.30609660     0.11500
C406        C  0.71938677  0.10614986  0.29839077    -0.01000
C407        C  0.69893397  0.14703645  0.28265107    -0.11200
C408        C  0.71625441  0.14694674  0.30100833    -0.11200
C409        C  0.72688726  0.12676396  0.30893356     0.11700
C410        C  0.74500784  0.12644944  0.32699692    -0.09200
C411        C  0.75509047  0.10611302  0.33429818    -0.03100
C412        C  0.74798507  0.08580742  0.32422213    -0.09300
H413        H  0.69878443  0.04946696  0.27001581     0.09000
H414        H  0.72997595  0.04941486  0.30096148     0.09000
H415        H  0.69137833  0.16299114  0.27697289     0.09200
H416        H  0.72143830  0.16283607  0.30886660     0.09200
H417        H  0.65300779  0.10646924  0.22918793     0.05600
H418        H  0.76915541  0.10611680  0.34807323     0.05600
C419        C  0.00176209  0.78963551  0.28254610    -0.09300
C420        C  0.97896560  0.78104893  0.27534930    -0.03100
C421        C  0.95652229  0.78938116  0.28367482    -0.09200
C422        C  0.95649441  0.80674066  0.30066538     0.11700
C423        C  0.97967978  0.81535274  0.30895865    -0.01000
C424        C  0.00252580  0.80688952  0.29974028     0.11500
C425        C  0.02511264  0.81586142  0.30799145    -0.11000
C426        C  0.02540380  0.83281346  0.32513706    -0.11000
C427        C  0.00311738  0.84134520  0.33455774     0.11500
C428        C  0.97997840  0.83254486  0.32633716    -0.01000
C429        C  0.93420198  0.81566748  0.30956474    -0.11200
C430        C  0.93449449  0.83252557  0.32668799    -0.11200
C431        C  0.95709148  0.84101942  0.33540708     0.11700
C432        C  0.95768924  0.85780616  0.35298888    -0.09200
C433        C  0.98037961  0.86591655  0.36101629    -0.03100
C434        C  0.00293877  0.85843419  0.35199942    -0.09300
H435        H  0.04270301  0.80969625  0.30128374     0.09000
H436        H  0.04320562  0.83917007  0.33108732     0.09000
H437        H  0.91638166  0.80951546  0.30342526     0.09200
H438        H  0.91687520  0.83882984  0.33318060     0.09200
H439        H  0.97863269  0.76772207  0.26224838     0.05600
H440        H  0.98045698  0.87892500  0.37448574     0.05600
C441        C  0.28077051  0.14000632  0.79457100    -0.09300
C442        C  0.28762388  0.11973282  0.80480859    -0.03100
C443        C  0.27796568  0.09935865  0.79711937    -0.09200
C444        C  0.26050394  0.09884192  0.77855672     0.11700
C445        C  0.25339258  0.11933949  0.76763829    -0.01000
C446        C  0.26375307  0.14007467  0.77548875     0.11500
C447        C  0.25674185  0.16004457  0.76412909    -0.11000
C448        C  0.23960080  0.15978613  0.74557934    -0.11000
C449        C  0.22871910  0.13957478  0.73796377     0.11500
C450        C  0.23571901  0.11910638  0.74903310    -0.01000
C451        C  0.24990679  0.07858566  0.77074454    -0.11200
C452        C  0.23234460  0.07838420  0.75261354    -0.11200
C453        C  0.22494962  0.09841188  0.74159807     0.11700
C454        C  0.20702541  0.09852149  0.72334710    -0.09200
C455        C  0.20028814  0.11872066  0.71288949    -0.03100
C456        C  0.21086603  0.13905688  0.71967061    -0.09300
H457        H  0.26449899  0.17600211  0.76955626     0.09000
H458        H  0.23471696  0.17557499  0.73734622     0.09000
H459        H  0.25503091  0.06275218  0.77875315     0.09200
H460        H  0.22453136  0.06241844  0.74728069     0.09200
H461        H  0.30075035  0.11982019  0.81939479     0.05600
H462        H  0.18644126  0.11858310  0.69892828     0.05600
C463        C  0.95086161  0.42886393  0.77297721    -0.09300
C464        C  0.97354652  0.43674768  0.78126340    -0.03100
C465        C  0.99615849  0.42878068  0.77299996    -0.09200
C466        C  0.99659117  0.41161677  0.75577880     0.11700
C467        C  0.97360397  0.40291098  0.74712298    -0.01000
C468        C  0.95050832  0.41155553  0.75573243     0.11500
C469        C  0.92815122  0.40267115  0.74685193    -0.11000
C470        C  0.92831156  0.38575994  0.72962874    -0.11000
C471        C  0.95083184  0.37716093  0.72074745     0.11500
C472        C  0.97376230  0.38571617  0.72969252    -0.01000
C473        C  0.01909632  0.40299104  0.74698736    -0.11200
C474        C  0.01924383  0.38604128  0.72992918    -0.11200
C475        C  0.99688750  0.37720293  0.72106885     0.11700
C476        C  0.99672189  0.36010880  0.70372176    -0.09200
C477        C  0.97419691  0.35209367  0.69525215    -0.03100
C478        C  0.95145021  0.36026728  0.70311189    -0.09300
H479        H  0.91039974  0.40883211  0.75317206     0.09000
H480        H  0.91066673  0.37944117  0.72322990     0.09000
H481        H  0.03676036  0.40934568  0.75329801     0.09200
H482        H  0.03701286  0.37989933  0.72363286     0.09200
H483        H  0.97368574  0.44977704  0.79464038     0.05600
H484        H  0.97438980  0.33901892  0.68185542     0.05600
C485        C  0.21227420  0.79759033  0.04033431    -0.09300
C486        C  0.20290194  0.79111067  0.01852280    -0.03100
C487        C  0.21088230  0.80089383  0.99758447    -0.09200
C488        C  0.22925745  0.81796649  0.99818449     0.11700
C489        C  0.23919478  0.82485671  0.02035625    -0.01000
C490        C  0.23057888  0.81471155  0.04159017     0.11500
C491        C  0.24048460  0.82197060  0.06324466    -0.11000
C492        C  0.25872965  0.83876652  0.06416905    -0.11000
C493        C  0.26774877  0.84883211  0.04346305     0.11500
C494        C  0.25779037  0.84187600  0.02128671    -0.01000
C495        C  0.23793122  0.82831877  0.97749318    -0.11200
C496        C  0.25625075  0.84499034  0.97839190    -0.11200
C497        C  0.26650903  0.85187108  0.00000441     0.11700
C498        C  0.28536001  0.86842835  0.00117352    -0.09200
C499        C  0.29481670  0.87489856  0.02289339    -0.03100
C500        C  0.28650384  0.86564841  0.04393365    -0.09300
H501        H  0.23417366  0.81462603  0.07964249     0.09000
H502        H  0.26586774  0.84378191  0.08121855     0.09000
H503        H  0.23063127  0.82349037  0.96044396     0.09200
H504        H  0.26243005  0.85245983  0.96200939     0.09200
H505        H  0.18880202  0.77802714  0.01783290     0.05600
H506        H  0.30927056  0.88768531  0.02342335     0.05600
C507        C  0.73922798  0.42518134  0.00597598    -0.09300
C508        C  0.74866505  0.43328128  0.02714982    -0.03100
C509        C  0.73911900  0.42661137  0.04881458    -0.09200
C510        C  0.71924502  0.41100974  0.04964337     0.11700
C511        C  0.70944466  0.40236817  0.02813123    -0.01000
C512        C  0.71955556  0.40940995  0.00613336     0.11500
C513        C  0.70977332  0.40050378  0.98513946    -0.11000
C514        C  0.69022519  0.38501896  0.98560964    -0.11000
C515        C  0.67972206  0.37806748  0.00707935     0.11500
C516        C  0.68945657  0.38675092  0.02860655    -0.01000
C517        C  0.70889167  0.40386029  0.07112432    -0.11200
C518        C  0.68924419  0.38845090  0.07159893    -0.11200
C519        C  0.67929591  0.37971726  0.05060970     0.11700
C520        C  0.65945235  0.36408771  0.05071888    -0.09200
C521        C  0.64997698  0.35616897  0.02951660    -0.03100
C522        C  0.65970500  0.36265930  0.00790076    -0.09300
H523        H  0.71723539  0.40547178  0.96819743     0.09000
H524        H  0.68326560  0.37857415  0.96902712     0.09000
H525        H  0.71596481  0.41017379  0.08771756     0.09200
H526        H  0.68180235  0.38342899  0.08853043     0.09200
H527        H  0.76382418  0.44537443  0.02674475     0.05600
H528        H  0.63473258  0.34415036  0.02986206     0.05600
C529        C  0.95302604  0.78843959  0.76789683    -0.09300
C530        C  0.97529381  0.77854508  0.77457335    -0.03100
C531        C  0.99812193  0.78551851  0.76577599    -0.09200
C532        C  0.99901296  0.80303534  0.74884935     0.11700
C533        C  0.97632368  0.81341386  0.74162102    -0.01000
C534        C  0.95316197  0.80620469  0.75135574     0.11500
C535        C  0.93108364  0.81687973  0.74428715    -0.11000
C536        C  0.93153348  0.83427776  0.72777402    -0.11000
C537        C  0.95406077  0.84149291  0.71772711     0.11500
C538        C  0.97676228  0.83101235  0.72467905    -0.01000
C539        C  0.02156140  0.81042581  0.73893331    -0.11200
C540        C  0.02196209  0.82760522  0.72202849    -0.11200
C541        C  0.99984158  0.83808060  0.71463459     0.11700
C542        C  0.99973452  0.85546297  0.69749218    -0.09200
C543        C  0.97732876  0.86537764  0.69109928    -0.03100
C544        C  0.95474316  0.85888290  0.70080658    -0.09300
H545        H  0.91330260  0.81177272  0.75149621     0.07800
H546        H  0.91407197  0.84201832  0.72280066     0.09000
H547        H  0.03902136  0.80280934  0.74411466     0.09200
H548        H  0.03971845  0.83267979  0.71474300     0.09200
H549        H  0.97485114  0.76506206  0.78747183     0.05600
H550        H  0.97745885  0.87874084  0.67803659     0.05600
C551        C  0.67234095  0.13530126  0.79718011    -0.09300
C552        C  0.66589143  0.11501224  0.80773573    -0.03100
C553        C  0.67594471  0.09465800  0.80032452    -0.09200
C554        C  0.69330884  0.09436882  0.78153202     0.11700
C555        C  0.70000222  0.11495453  0.77037277    -0.01000
C556        C  0.68949152  0.13555666  0.77824622     0.11500
C557        C  0.69646895  0.15566551  0.76705657    -0.11000
C558        C  0.71342948  0.15564237  0.74833542    -0.11000
C559        C  0.72407511  0.13551875  0.74023982     0.11500
C560        C  0.71733785  0.11495097  0.75142086    -0.01000
C561        C  0.70419165  0.07428210  0.77365227    -0.11200
C562        C  0.72134215  0.07429260  0.75514174    -0.11200
C563        C  0.72811472  0.09437670  0.74381827     0.11700
C564        C  0.74548601  0.09460586  0.72512407    -0.09200
C565        C  0.75162895  0.11477467  0.71420651    -0.03100
C566        C  0.74142524  0.13514398  0.72138208    -0.09300
H567        H  0.68878440  0.17157998  0.77272333     0.09000
H568        H  0.71821653  0.17151706  0.74023313     0.09000
H569        H  0.69953282  0.05841119  0.78182964     0.09200
H570        H  0.72928242  0.05840676  0.74970573     0.09200
H571        H  0.65271374  0.11508564  0.82228135     0.05600
H572        H  0.76505660  0.11463704  0.69986567     0.05600
C573        C  0.73811118  0.79996955  0.00807256    -0.09300
C574        C  0.74642019  0.79164321  0.02955273    -0.03100
C575        C  0.73633866  0.79865378  0.05089395    -0.09200
C576        C  0.71659955  0.81450373  0.05095430     0.11700
C577        C  0.70802570  0.82342391  0.02906634    -0.01000
C578        C  0.71895207  0.81621582  0.00749550     0.11500
C579        C  0.71051828  0.82546309  0.98614105    -0.11000
C580        C  0.69168179  0.84164503  0.98583235    -0.11000
C581        C  0.68043200  0.84888035  0.00684202     0.11500
C582        C  0.68857738  0.83961107  0.02871923    -0.01000
C583        C  0.70521961  0.82167448  0.07196263    -0.11200
C584        C  0.68580885  0.83736823  0.07160156    -0.11200
C585        C  0.67732453  0.84657222  0.05024377     0.11700
C586        C  0.65792731  0.86262887  0.04952883    -0.09200
C587        C  0.65034887  0.87148963  0.02804406    -0.03100
C588        C  0.66116213  0.86509468  0.00685651    -0.09300
H589        H  0.71857699  0.82029525  0.96950871     0.09000
H590        H  0.68585875  0.84840519  0.96900222     0.09000
H591        H  0.71123488  0.81509040  0.08880748     0.09200
H592        H  0.67750940  0.84235783  0.08818955     0.09200
H593        H  0.76137431  0.77933541  0.02965229     0.05600
H594        H  0.63553158  0.88394256  0.02781887     0.05600
C595        C  0.02803172  0.31235395  0.37996405     0.18600
C596        C  0.00723604  0.29816988  0.38179056    -0.10500
C597        C  0.00669884  0.28071017  0.39828843    -0.11300
C598        C  0.02700204  0.27705703  0.41325328     0.20200
C599        C  0.04804548  0.29100296  0.41129150    -0.13400
C600        C  0.04851338  0.30867250  0.39482015    -0.11700
C601        C  0.02686826  0.25808871  0.42935148     0.01200
C602        C  0.02927382  0.24083509  0.44047943    -0.31700
C603        C  0.02667549  0.33145188  0.36406075     0.02500
C604        C  0.01746177  0.34628770  0.35226544    -0.33300
H605        H  0.99119447  0.30073972  0.37055954     0.13600
H606        H  0.99044090  0.26999920  0.39929300     0.13400
H607        H  0.06407579  0.28821755  0.42248765     0.13300
H608        H  0.06467030  0.31949830  0.39383353     0.12300
C609        C  0.12960696  0.17823137  0.40365525     0.18600
C610        C  0.15460543  0.17612865  0.41043885    -0.10500
C611        C  0.17317700  0.17320143  0.39330563    -0.11300
C612        C  0.16687629  0.17253618  0.36930496     0.20200
C613        C  0.14192941  0.17497040  0.36260159    -0.13400
C614        C  0.12341987  0.17785304  0.37967205    -0.11700
C615        C  0.18505683  0.16585378  0.35189599     0.01200
C616        C  0.19744750  0.15505320  0.33819598    -0.31700
C617        C  0.11008610  0.18106663  0.42093667     0.02500
C618        C  0.09216013  0.18477069  0.43322578    -0.33300
H619        H  0.15968111  0.17641754  0.42890919     0.13600
H620        H  0.19230502  0.17082861  0.39879476     0.13400
H621        H  0.13668017  0.17397051  0.34419882     0.13300
H622        H  0.10419604  0.17947454  0.37417085     0.12300
C623        C  0.12445643  0.04794319  0.39760157     0.18600
C624        C  0.11884685  0.06322289  0.37963813    -0.10500
C625        C  0.13629250  0.06772886  0.36200126    -0.11300
C626        C  0.15946375  0.05691833  0.36207032     0.20200
C627        C  0.16503672  0.04140387  0.37986505    -0.13400
C628        C  0.14750411  0.03684579  0.39754167    -0.11700
C629        C  0.17810828  0.06399859  0.34540058     0.01200
C630        C  0.19164908  0.07521466  0.33320546    -0.31700
C631        C  0.10626637  0.04339300  0.41569098     0.02500
C632        C  0.09001293  0.03863601  0.42952058    -0.33300
H633        H  0.10108308  0.07182663  0.37939714     0.13600
H634        H  0.13192217  0.08004485  0.34857676     0.13400
H635        H  0.18302662  0.03320866  0.38034152     0.13300
H636        H  0.15200597  0.02488902  0.41126913     0.12300
C637        C  0.03467257  0.94081710  0.42000811     0.18600
C638        C  0.02874526  0.91941143  0.42854273    -0.10500
C639        C  0.02998198  0.90068263  0.41356497    -0.11300
C640        C  0.03730705  0.90309185  0.38992279     0.20200
C641        C  0.04382867  0.92445148  0.38156620    -0.13400
C642        C  0.04263160  0.94317301  0.39655230    -0.11700
C643        C  0.03408972  0.88446575  0.37367308     0.01200
C644        C  0.02437591  0.87018205  0.36151223    -0.31700
C645        C  0.03285027  0.96045711  0.43504484     0.02500
C646        C  0.03414648  0.97838706  0.44505918    -0.33300
H647        H  0.02269376  0.91725079  0.44660882     0.13600
H648        H  0.02438437  0.88441152  0.42022012     0.13400
H649        H  0.04904542  0.92676558  0.36328760     0.13300
H650        H  0.04742913  0.95958366  0.38969735     0.12300
C651        C  0.83136070  0.04164137  0.39563622     0.18600
C652        C  0.80646394  0.03636605  0.40054793    -0.10500
C653        C  0.78800199  0.04003044  0.38354777    -0.11300
C654        C  0.79434910  0.04878070  0.36142333     0.20200
C655        C  0.81929958  0.05378569  0.35641284    -0.13400
C656        C  0.83774879  0.05014287  0.37340907    -0.11700
C657        C  0.77516354  0.05556030  0.34512410     0.01200
C658        C  0.76070284  0.06631091  0.33339292    -0.31700
C659        C  0.85032429  0.03823824  0.41332576     0.02500
C660        C  0.86652469  0.03426083  0.42750206    -0.33300
H661        H  0.80127763  0.02974723  0.41763355     0.13600
H662        H  0.76874181  0.03656053  0.38785575     0.13400
H663        H  0.82440081  0.06103542  0.33958185     0.13300
H664        H  0.85691185  0.05426480  0.36934234     0.12300
C665        C  0.92506228  0.93779756  0.42325408     0.18600
C666        C  0.91082580  0.93803801  0.40249058    -0.10500
C667        C  0.91026619  0.91926028  0.38761444    -0.11300
C668        C  0.92378883  0.89996566  0.39345981     0.20200
C669        C  0.93781274  0.89961330  0.41435431    -0.13400
C670        C  0.93841259  0.91841574  0.42921897    -0.11700
C671        C  0.92655156  0.88187179  0.37668703     0.01200
C672        C  0.93629295  0.86840135  0.36370113    -0.31700
C673        C  0.92587000  0.95767052  0.43797319     0.02500
C674        C  0.92335630  0.97578859  0.44736863    -0.33300
H675        H  0.90047267  0.95292511  0.39758737     0.13600
H676        H  0.89986055  0.92002242  0.37128600     0.13400
H677        H  0.94888804  0.88501680  0.41880322     0.13300
H678        H  0.94958250  0.91795867  0.44509718     0.12300
C679        C  0.91993292  0.31936060  0.39057097     0.18600
C680        C  0.90954109  0.29905394  0.38288711    -0.10500
C681        C  0.91081482  0.27978921  0.39708040    -0.11300
C682        C  0.92262704  0.28042506  0.41915209     0.20200
C683        C  0.93299197  0.30074341  0.42694239    -0.13400
C684        C  0.93172595  0.32005437  0.41270204    -0.11700
C685        C  0.92357351  0.26015445  0.43350403     0.01200
C686        C  0.92135511  0.24191628  0.44289468    -0.31700
C687        C  0.92181907  0.33836219  0.37450797     0.02500
C688        C  0.93025628  0.35220078  0.36093947    -0.33300
H689        H  0.90094704  0.29795467  0.36566258     0.13600
H690        H  0.90276226  0.26426757  0.39069836     0.13400
H691        H  0.94226297  0.30161791  0.44386377     0.13300
H692        H  0.94046476  0.33540383  0.41872159     0.12300
C693        C  0.78727365  0.16568580  0.36681626     0.18600
C694        C  0.81198932  0.16765782  0.35915852    -0.10500
C695        C  0.83103501  0.17206948  0.37536037    -0.11300
C696        C  0.82558701  0.17441896  0.39940907     0.20200
C697        C  0.80080273  0.17290450  0.40702027    -0.13400
C698        C  0.78173360  0.16847815  0.39079632    -0.11700
C699        C  0.84549197  0.17840400  0.41609010     0.01200
C700        C  0.86291930  0.18277142  0.42881379    -0.31700
C701        C  0.76845674  0.15757798  0.35073994     0.02500
C702        C  0.75523917  0.14612191  0.33839819    -0.33300
H703        H  0.81664189  0.16511265  0.34077003     0.13600
H704        H  0.85007093  0.17325150  0.36918629     0.13400
H705        H  0.79627617  0.17474156  0.42552227     0.13300
H706        H  0.76279951  0.16657616  0.39704807     0.12300
C707        C  0.03052858  0.31853688  0.66237274     0.18600
C708        C  0.04680205  0.30048159  0.66599335    -0.10500
C709        C  0.04609805  0.28181420  0.65090552    -0.11300
C710        C  0.02898607  0.28093788  0.63218964     0.20200
C711        C  0.01323160  0.29925038  0.62817795    -0.13400
C712        C  0.01396946  0.31791143  0.64321000    -0.11700
C713        C  0.02724462  0.26088558  0.61781761     0.01200
C714        C  0.02883150  0.24285451  0.60807534    -0.31700
C715        C  0.02795888  0.33623061  0.67975965     0.02500
C716        C  0.01828410  0.34951708  0.69309447    -0.33300
H717        H  0.05941910  0.30049026  0.68087635     0.13600
H718        H  0.05844605  0.26778761  0.65421975     0.13400
H719        H  0.99997495  0.29887923  0.61381277     0.13300
H720        H  0.00097895  0.33155190  0.64036630     0.12300
C721        C  0.13171536  0.18025613  0.64316797     0.18600
C722        C  0.14061596  0.19806805  0.65701619    -0.10500
C723        C  0.16030284  0.19462577  0.67282473    -0.11300
C724        C  0.17121721  0.17335985  0.67476108     0.20200
C725        C  0.16266525  0.15573171  0.66048046    -0.13400
C726        C  0.14298658  0.15914546  0.64478551    -0.11700
C727        C  0.18947248  0.16849004  0.69268520     0.01200
C728        C  0.20194182  0.15840595  0.70686333    -0.31700
C729        C  0.11024325  0.18336537  0.62827137     0.02500
C730        C  0.09148405  0.18686256  0.61715739    -0.33300
H731        H  0.13195728  0.21445945  0.65598821     0.13600
H732        H  0.16654120  0.20832313  0.68389824     0.13400
H733        H  0.17077440  0.13913820  0.66194407     0.13300
H734        H  0.13622618  0.14521619  0.63430841     0.12300
C735        C  0.91965297  0.31890988  0.66024765     0.18600
C736        C  0.90306382  0.30105150  0.66351552    -0.10500
C737        C  0.90410296  0.28220488  0.64871554    -0.11300
C738        C  0.92180310  0.28091140  0.63053323     0.20200
C739        C  0.93814480  0.29892717  0.62697885    -0.13400
C740        C  0.93708844  0.31780108  0.64177503    -0.11700
C741        C  0.92309866  0.26083501  0.61607406     0.01200
C742        C  0.92081074  0.24281090  0.60637862    -0.31700
C743        C  0.92144967  0.33681683  0.67752338     0.02500
C744        C  0.93028338  0.35001874  0.69147592    -0.33300
H745        H  0.88982379  0.30138583  0.67790708     0.13600
H746        H  0.89136957  0.26840752  0.65174546     0.13400
H747        H  0.95193889  0.29823241  0.61307821     0.13300
H748        H  0.95038737  0.33125452  0.63924943     0.12300
C749        C  0.78101288  0.17261186  0.67741202     0.18600
C750        C  0.80275973  0.18384264  0.68430026    -0.10500
C751        C  0.82202017  0.18745823  0.66805041    -0.11300
C752        C  0.81984273  0.17978085  0.64475703     0.20200
C753        C  0.79785230  0.16905022  0.63767389    -0.13400
C754        C  0.77856186  0.16545409  0.65393367    -0.11700
C755        C  0.84047495  0.18256875  0.62853521     0.01200
C756        C  0.85878752  0.18608224  0.61662089    -0.31700
C757        C  0.76303335  0.16544783  0.69494552     0.02500
C758        C  0.75060569  0.15463384  0.70869608    -0.33300
H759        H  0.80519348  0.18913488  0.70241740     0.13600
H760        H  0.83887938  0.19578460  0.67381020     0.13400
H761        H  0.79584046  0.16301151  0.61976693     0.13300
H762        H  0.76208898  0.15639760  0.64839454     0.12300
C763        C  0.92090832  0.90248148  0.66184591     0.18600
C764        C  0.90400662  0.92012141  0.66502508    -0.10500
C765        C  0.90390920  0.93829841  0.64930434    -0.11300
C766        C  0.92080931  0.93908068  0.63039222     0.20200
C767        C  0.93743506  0.92126650  0.62704446    -0.13400
C768        C  0.93746496  0.90307864  0.64268233    -0.11700
C769        C  0.92161973  0.95872190  0.61533913     0.01200
C770        C  0.91978358  0.97683234  0.60579837    -0.31700
C771        C  0.92371346  0.88496517  0.67929557     0.02500
C772        C  0.93350729  0.87112984  0.69182946    -0.33300
H773        H  0.89139959  0.92012248  0.67992566     0.13600
H774        H  0.89103015  0.95201637  0.65221380     0.13400
H775        H  0.95071041  0.92164380  0.61268200     0.13300
H776        H  0.95093404  0.88974455  0.64020882     0.12300
C777        C  0.79044651  0.05528723  0.68822322     0.18600
C778        C  0.78869140  0.06216111  0.66465869    -0.10500
C779        C  0.80783285  0.05732523  0.64876086    -0.11300
C780        C  0.82896963  0.04562326  0.65628234     0.20200
C781        C  0.83052299  0.03823215  0.67973637    -0.13400
C782        C  0.81133526  0.04312624  0.69570421    -0.11700
C783        C  0.84904256  0.04142880  0.63992885     0.01200
C784        C  0.86569579  0.03710670  0.62634040    -0.31700
C785        C  0.77229313  0.06339744  0.70490249     0.02500
C786        C  0.75837868  0.07503224  0.71630138    -0.33300
H787        H  0.77283687  0.07187866  0.65873328     0.13600
H788        H  0.80635745  0.06308434  0.63071018     0.13400
H789        H  0.84674351  0.02909313  0.68577179     0.13300
H790        H  0.81310605  0.03800083  0.71394125     0.12300
C791        C  0.12589889  0.04678385  0.65283405     0.18600
C792        C  0.12728789  0.03642791  0.67501856    -0.10500
C793        C  0.14606184  0.04246526  0.69098514    -0.11300
C794        C  0.16363880  0.05881971  0.68481207     0.20200
C795        C  0.16253679  0.06877796  0.66242427    -0.13400
C796        C  0.14378952  0.06277023  0.64650371    -0.11700
C797        C  0.18128375  0.06725776  0.70189197     0.01200
C798        C  0.19466236  0.07883167  0.71398366    -0.31700
C799        C  0.10576076  0.04149193  0.63688233     0.02500
C800        C  0.08852493  0.03656580  0.62419554    -0.33300
H801        H  0.11357402  0.02402973  0.68014707     0.13600
H802        H  0.14648946  0.03481149  0.70829018     0.13400
H803        H  0.17579994  0.08164934  0.65750255     0.13300
H804        H  0.14295755  0.07091671  0.62945656     0.12300
C805        C  0.03169122  0.93693629  0.62846129     0.18600
C806        C  0.04865215  0.93456836  0.64716217    -0.10500
C807        C  0.04923545  0.91482037  0.66067447    -0.11300
C808        C  0.03295340  0.89708717  0.65560143     0.20200
C809        C  0.01635861  0.89925614  0.63656132    -0.13400
C810        C  0.01575139  0.91902212  0.62306238    -0.11700
C811        C  0.03035190  0.87829215  0.67177866     0.01200
C812        C  0.02109476  0.86488893  0.68531080    -0.31700
C813        C  0.03043077  0.95801105  0.61551055     0.02500
C814        C  0.03204023  0.97668735  0.60702688    -0.33300
H815        H  0.06106908  0.94823331  0.65166903     0.13600
H816        H  0.06180484  0.91369919  0.67554673     0.13400
H817        H  0.00324705  0.88595267  0.63265311     0.13300
H818        H  0.00247255  0.92051058  0.60879079     0.12300
C819        C  0.31584787  0.17525984  0.20935447     0.18600
C820        C  0.30768285  0.17547590  0.18590695    -0.10500
C821        C  0.32444062  0.17991647  0.16763742    -0.11300
C822        C  0.34954681  0.18411011  0.17262970     0.20200
C823        C  0.35763391  0.18455163  0.19612284    -0.13400
C824        C  0.34083706  0.18005614  0.21444184    -0.11700
C825        C  0.36678793  0.18778646  0.15350254     0.01200
C826        C  0.37959244  0.19160692  0.13646757    -0.31700
C827        C  0.29953422  0.16668497  0.22742736     0.02500
C828        C  0.28695264  0.15484386  0.23992629    -0.33300
H829        H  0.28854514  0.17140737  0.18167767     0.13600
H830        H  0.31792474  0.17959649  0.14957341     0.13400
H831        H  0.37697465  0.18786207  0.20023211     0.13300
H832        H  0.34750273  0.17956227  0.23244863     0.12300
C833        C  0.36379465  0.28500450  0.07624859     0.18600
C834        C  0.33800420  0.28147503  0.07745758    -0.10500
C835        C  0.32156234  0.29969299  0.07845410    -0.11300
C836        C  0.33065547  0.32172758  0.07839710     0.20200
C837        C  0.35647006  0.32534970  0.07752882    -0.13400
C838        C  0.37298018  0.30706417  0.07658764    -0.11700
C839        C  0.31348328  0.34012599  0.07483966     0.01200
C840        C  0.29976095  0.35320135  0.06499955    -0.31700
C841        C  0.38043968  0.26577973  0.07566104     0.02500
C842        C  0.39138668  0.24808718  0.07795029    -0.33300
H843        H  0.33055597  0.26458145  0.07735469     0.13600
H844        H  0.30169283  0.29658710  0.07849517     0.13400
H845        H  0.36379586  0.34227662  0.07685898     0.13300
H846        H  0.39282825  0.31013493  0.07581758     0.12300
C847        C  0.31047425  0.05327272  0.20614283     0.18600
C848        C  0.33501370  0.04774611  0.21226322    -0.10500
C849        C  0.35260980  0.04320390  0.19466060    -0.11300
C850        C  0.34577810  0.04432458  0.17085160     0.20200
C851        C  0.32103742  0.04901928  0.16479350    -0.13400
C852        C  0.30347083  0.05353144  0.18236203    -0.11700
C853        C  0.36399591  0.04101419  0.15249473     0.01200
C854        C  0.37752694  0.03747041  0.13591259    -0.31700
C855        C  0.29378765  0.06232645  0.22363734     0.02500
C856        C  0.28198865  0.07456806  0.23639778    -0.33300
H857        H  0.34077991  0.04784082  0.23055445     0.13600
H858        H  0.37163723  0.03945034  0.19958295     0.13400
H859        H  0.31548490  0.04980554  0.14645841     0.13300
H860        H  0.28469571  0.05813396  0.17735252     0.12300
C861        C  0.36341634  0.94354624  0.07553486     0.18600
C862        C  0.33766930  0.94706754  0.07390582    -0.10500
C863        C  0.32109075  0.92892653  0.07464501    -0.11300
C864        C  0.32992064  0.90690312  0.07714145     0.20200
C865        C  0.35571689  0.90330878  0.07901122    -0.13400
C866        C  0.37237884  0.92155259  0.07836120    -0.11700
C867        C  0.31274326  0.88826003  0.07396112     0.01200
C868        C  0.29861062  0.87506913  0.06460283    -0.31700
C869        C  0.38003193  0.96282106  0.07544669     0.02500
C870        C  0.39057622  0.98069109  0.07792868    -0.33300
H871        H  0.33036718  0.96390855  0.07189206     0.13600
H872        H  0.30134449  0.93205552  0.07263408     0.13400
H873        H  0.36298139  0.88640445  0.08041972     0.13300
H874        H  0.39218633  0.91848416  0.07984562     0.12300
C875        C  0.31389805  0.06211981  0.84315644     0.18600
C876        C  0.33599918  0.05036975  0.83874502    -0.10500
C877        C  0.35251801  0.04586676  0.85720702    -0.11300
C878        C  0.34708752  0.05329596  0.88007288     0.20200
C879        C  0.32500655  0.06504327  0.88447451    -0.13400
C880        C  0.30850676  0.06951978  0.86604809    -0.11700
C881        C  0.36375940  0.04836859  0.89917373     0.01200
C882        C  0.37653781  0.04310311  0.91569589    -0.31700
C883        C  0.29817534  0.06907191  0.82400219     0.02500
C884        C  0.28682417  0.07992311  0.80968359    -0.33300
H885        H  0.34063151  0.04502944  0.82102935     0.13600
H886        H  0.36954865  0.03673815  0.85364445     0.13400
H887        H  0.32062618  0.07083944  0.90209726     0.13300
H888        H  0.29175767  0.07908549  0.86956485     0.12300
C889        C  0.32975091  0.90987243  0.96844158     0.18600
C890        C  0.32298755  0.93100299  0.95974322    -0.10500
C891        C  0.34022628  0.94863621  0.95972742    -0.11300
C892        C  0.36435242  0.94540875  0.96859101     0.20200
C893        C  0.37132623  0.92417433  0.97688275    -0.13400
C894        C  0.35405999  0.90650345  0.97687821    -0.11700
C895        C  0.38134232  0.96423875  0.96946411     0.01200
C896        C  0.39201621  0.98205775  0.96797211    -0.31700
C897        C  0.31101391  0.89276315  0.97208939     0.02500
C898        C  0.29673375  0.87975982  0.98133960    -0.33300
H899        H  0.30418028  0.93404971  0.95366304     0.13600
H900        H  0.33455137  0.96496916  0.95328005     0.13400
H901        H  0.38985725  0.92140924  0.98380980     0.13300
H902        H  0.35942157  0.89040777  0.98415854     0.12300
C903        C  0.36965762  0.28744256  0.97435503     0.18600
C904        C  0.35155339  0.28807705  0.95651575    -0.10500
C905        C  0.33454135  0.30588019  0.95520755    -0.11300
C906        C  0.33560812  0.32340410  0.97162474     0.20200
C907        C  0.35426979  0.32315261  0.98901566    -0.13400
C908        C  0.37120214  0.30525858  0.99041733    -0.11700
C909        C  0.31595928  0.34005841  0.97302616     0.01200
C910        C  0.30066365  0.35265893  0.98149641    -0.31700
C911        C  0.38521162  0.26767367  0.97656003     0.02500
C912        C  0.39438500  0.24917464  0.97483114    -0.33300
H913        H  0.35007279  0.27437881  0.94402921     0.13600
H914        H  0.32008541  0.30556689  0.94191699     0.13400
H915        H  0.35514103  0.33640390  0.00207352     0.13300
H916        H  0.38494510  0.30502643  0.00438013     0.12300
C917        C  0.31939017  0.17752272  0.83900077     0.18600
C918        C  0.34454285  0.17116525  0.83939835    -0.10500
C919        C  0.35912059  0.17497412  0.85950473    -0.11300
C920        C  0.34870013  0.18509802  0.87951914     0.20200
C921        C  0.32364473  0.19180199  0.87900807    -0.13400
C922        C  0.30904110  0.18795941  0.85888760    -0.11700
C923        C  0.36359904  0.18841425  0.90057629     0.01200
C924        C  0.37570194  0.19192968  0.91824039    -0.31700
C925        C  0.30370159  0.17050722  0.81956040     0.02500
C926        C  0.29167616  0.15969310  0.80551363    -0.33300
H927        H  0.35272213  0.16268019  0.82438568     0.13600
H928        H  0.37840602  0.16967428  0.85957496     0.13400
H929        H  0.31527628  0.19964329  0.89430662     0.13300
H930        H  0.28954240  0.19257984  0.85908086     0.12300
C931        C  0.61644012  0.32295519  0.08407341     0.18600
C932        C  0.62297286  0.30362474  0.09667978    -0.10500
C933        C  0.60756716  0.28463198  0.09605753    -0.11300
C934        C  0.58557339  0.28466934  0.08266986     0.20200
C935        C  0.57872148  0.30418908  0.07051706    -0.13400
C936        C  0.59410724  0.32320729  0.07118503    -0.11700
C937        C  0.57087265  0.26430182  0.08092347     0.01200
C938        C  0.56152007  0.24579549  0.08171303    -0.31700
C939        C  0.63417850  0.34101176  0.08094462     0.02500
C940        C  0.64802515  0.35416544  0.07134026    -0.33300
H941        H  0.64038467  0.30293125  0.10626959     0.13600
H942        H  0.61317716  0.26966536  0.10550218     0.13400
H943        H  0.56188802  0.30451855  0.06002583     0.13300
H944        H  0.58906873  0.33782499  0.06088092     0.12300
C945        C  0.60447905  0.17400575  0.17079428     0.18600
C946        C  0.59476238  0.17382061  0.19374341    -0.10500
C947        C  0.61031786  0.16923988  0.21299152    -0.11300
C948        C  0.63572609  0.16501889  0.20942650     0.20200
C949        C  0.64541357  0.16532884  0.18649105    -0.13400
C950        C  0.62988809  0.16987576  0.16728037    -0.11700
C951        C  0.65120409  0.15748809  0.22865492     0.01200
C952        C  0.66328280  0.14639339  0.24230570    -0.31700
C953        C  0.58865205  0.17881427  0.15083490     0.02500
C954        C  0.57656057  0.18403755  0.13372712    -0.33300
H955        H  0.57516240  0.17699854  0.19672891     0.13600
H956        H  0.60245461  0.16854968  0.23055756     0.13400
H957        H  0.66487847  0.16158801  0.18340845     0.13300
H958        H  0.63765992  0.16997085  0.14966179     0.12300
C959        C  0.61553990  0.32143005  0.97500968     0.18600
C960        C  0.62128452  0.30242444  0.96155352    -0.10500
C961        C  0.60496230  0.28410008  0.96112130    -0.11300
C962        C  0.58284973  0.28448522  0.97430867     0.20200
C963        C  0.57681775  0.30366168  0.98741501    -0.13400
C964        C  0.59314174  0.32202958  0.98781019    -0.11700
C965        C  0.56727245  0.26468224  0.97487790     0.01200
C966        C  0.55766548  0.24643552  0.97271672    -0.31700
C967        C  0.63388032  0.33888381  0.97854533     0.02500
C968        C  0.64808522  0.35189002  0.98786928    -0.33300
H969        H  0.63871118  0.30147284  0.95200291     0.13600
H970        H  0.60991641  0.26935097  0.95097458     0.13400
H971        H  0.55988886  0.30419696  0.99777263     0.13300
H972        H  0.58869723  0.33640361  0.99873412     0.12300
C973        C  0.63380987  0.17453108  0.84009631     0.18600
C974        C  0.60977538  0.18302387  0.83636710    -0.10500
C975        C  0.59397069  0.18710023  0.85559995    -0.11300
C976        C  0.60204445  0.18250672  0.87862129     0.20200
C977        C  0.62630262  0.17466523  0.88232522    -0.13400
C978        C  0.64207391  0.17066650  0.86316922    -0.11700
C979        C  0.58559181  0.18560990  0.89851525     0.01200
C980        C  0.57306112  0.18897760  0.91586378    -0.31700
C981        C  0.64878601  0.16659373  0.82065404     0.02500
C982        C  0.66079958  0.15501031  0.80736002    -0.33300
H983        H  0.60298621  0.18578448  0.81863194     0.13600
H984        H  0.57530980  0.19331067  0.85249052     0.13400
H985        H  0.63284711  0.17115447  0.90000041     0.13300
H986        H  0.66044057  0.16378136  0.86631363     0.12300
C987        C  0.61805307  0.90636322  0.97310035     0.18600
C988        C  0.62303709  0.92587913  0.96016216    -0.10500
C989        C  0.60582518  0.94360471  0.96000630    -0.11300
C990        C  0.58356716  0.94210696  0.97294951     0.20200
C991        C  0.57834233  0.92239214  0.98544337    -0.13400
C992        C  0.59550852  0.90465112  0.98553871    -0.11700
C993        C  0.56690955  0.96127038  0.97396068     0.01200
C994        C  0.55629004  0.97916252  0.97234395    -0.31700
C995        C  0.63707617  0.88944298  0.97665864     0.02500
C996        C  0.65094314  0.87636511  0.98638762    -0.33300
H997        H  0.64051734  0.92770015  0.95084151     0.13600
H998        H  0.61018798  0.95875328  0.95029105     0.13400
H999        H  0.56134364  0.92094834  0.99559411     0.13300
H1000       H  0.59158496  0.88987656  0.99602818     0.12300
C1001       C  0.60583809  0.04692440  0.88295515     0.18600
C1002       C  0.60950965  0.03190872  0.86416182    -0.10500
C1003       C  0.62655301  0.03703448  0.84614544    -0.11300
C1004       C  0.64012158  0.05714713  0.84691454     0.20200
C1005       C  0.63664370  0.07190216  0.86590734    -0.13400
C1006       C  0.61965235  0.06682121  0.88380684    -0.11700
C1007       C  0.65604211  0.06407191  0.82762329     0.01200
C1008       C  0.66732150  0.07508789  0.81320329    -0.31700
C1009       C  0.58820020  0.04201902  0.90154691     0.02500
C1010       C  0.57444780  0.03773482  0.91783546    -0.33300
H1011       H  0.59904353  0.01639112  0.86331526     0.13600
H1012       H  0.62882462  0.02554783  0.83150319     0.13400
H1013       H  0.64676896  0.08761294  0.86665453     0.13300
H1014       H  0.61711976  0.07853806  0.89821601     0.12300
C1015       C  0.63471229  0.04912866  0.20892335     0.18600
C1016       C  0.64364773  0.04403123  0.18635679    -0.10500
C1017       C  0.62703963  0.04100870  0.16763170    -0.11300
C1018       C  0.60134515  0.04320916  0.17125894     0.20200
C1019       C  0.59232753  0.04799005  0.19389769    -0.13400
C1020       C  0.60896867  0.05103009  0.21265321    -0.11700
C1021       C  0.58446839  0.04049537  0.15165714     0.01200
C1022       C  0.57177902  0.03695415  0.13447417    -0.31700
C1023       C  0.65192640  0.05573190  0.22717497     0.02500
C1024       C  0.66497876  0.06641717  0.24037708    -0.33300
H1025       H  0.66348257  0.04303072  0.18308894     0.13600
H1026       H  0.63426545  0.03731546  0.15023102     0.13400
H1027       H  0.57251903  0.04973117  0.19696028     0.13300
H1028       H  0.60181108  0.05548240  0.22988398     0.12300
C1029       C  0.61238789  0.90252277  0.08122167     0.18600
C1030       C  0.59016402  0.90190886  0.06818644    -0.10500
C1031       C  0.57487524  0.92094675  0.06675191    -0.11300
C1032       C  0.58175034  0.94081075  0.07825846     0.20200
C1033       C  0.60370737  0.94126187  0.09167641    -0.13400
C1034       C  0.61899208  0.92225377  0.09308190    -0.11700
C1035       C  0.56677360  0.96095474  0.07634510     0.01200
C1036       C  0.55708371  0.97925698  0.07780703    -0.31700
C1037       C  0.63020155  0.88448479  0.07875062     0.02500
C1038       C  0.64485322  0.87175821  0.06963659    -0.33300
H1039       H  0.58513063  0.88697104  0.05839050     0.13600
H1040       H  0.55804311  0.92031729  0.05627451     0.13400
H1041       H  0.60930879  0.95650267  0.10064301     0.13300
H1042       H  0.63637369  0.92321041  0.10269973     0.12300
C1043       C  0.02653043  0.50285990  0.19782709     0.18600
C1044       C  0.01413157  0.50718829  0.21907199    -0.10500
C1045       C  0.01490523  0.49141478  0.23742017    -0.11300
C1046       C  0.02818603  0.47122081  0.23477265     0.20200
C1047       C  0.04083841  0.46707193  0.21363330    -0.13400
C1048       C  0.04008187  0.48283862  0.19530962    -0.11700
C1049       C  0.02578981  0.45380740  0.25247974     0.01200
C1050       C  0.01664464  0.44076665  0.26638954    -0.31700
C1051       C  0.02550240  0.51856728  0.17835887     0.02500
C1052       C  0.02783300  0.52918833  0.16030447    -0.33300
H1053       H  0.00357655  0.52253146  0.22132097     0.13600
H1054       H  0.00456682  0.49469383  0.25345309     0.13400
H1055       H  0.05073874  0.45142293  0.21107286     0.13300
H1056       H  0.04975458  0.47923877  0.17898284     0.12300
C1057       C  0.12951122  0.49704362  0.09258105     0.18600
C1058       C  0.14767322  0.50279421  0.07595200    -0.10500
C1059       C  0.16751273  0.48818348  0.07144129    -0.11300
C1060       C  0.16944111  0.46772998  0.08356580     0.20200
C1061       C  0.15157222  0.46217930  0.10058435    -0.13400
C1062       C  0.13171536  0.47683330  0.10512839    -0.11700
C1063       C  0.18801075  0.45164097  0.07621915     0.01200
C1064       C  0.20152389  0.43974119  0.06463681    -0.31700
C1065       C  0.10814802  0.51137195  0.09620706     0.02500
C1066       C  0.08955810  0.52212979  0.10028391    -0.33300
H1067       H  0.14619500  0.51830310  0.06609254     0.13600
H1068       H  0.18095674  0.49252697  0.05795668     0.13400
H1069       H  0.15258256  0.44630109  0.10982431     0.13300
H1070       H  0.11776820  0.47216452  0.11801663     0.12300
C1071       C  0.12719844  0.49544327  0.95379276     0.18600
C1072       C  0.15032276  0.50343984  0.96154300    -0.10500
C1073       C  0.17015385  0.48852739  0.96517437    -0.11300
C1074       C  0.16714663  0.46546314  0.96099450     0.20200
C1075       C  0.14425501  0.45755356  0.95249042    -0.13400
C1076       C  0.12441523  0.47248414  0.94882537    -0.11700
C1077       C  0.18618005  0.44989539  0.96880187     0.01200
C1078       C  0.20030152  0.43856878  0.98045232    -0.31700
C1079       C  0.10621520  0.51058880  0.95129138     0.02500
C1080       C  0.08795833  0.52209613  0.94787926    -0.33300
H1081       H  0.15285116  0.52110869  0.96534947     0.13600
H1082       H  0.18757475  0.49488853  0.97207856     0.13400
H1083       H  0.14145901  0.43977551  0.94948782     0.13300
H1084       H  0.10671250  0.46603325  0.94269556     0.12300
C1085       C  0.02977646  0.47133080  0.81353369     0.18600
C1086       C  0.04201865  0.46731459  0.83491683    -0.10500
C1087       C  0.04094629  0.48322782  0.85311416    -0.11300
C1088       C  0.02742474  0.50322807  0.85022209     0.20200
C1089       C  0.01573268  0.50751945  0.82863361    -0.13400
C1090       C  0.01681604  0.49161018  0.81043006    -0.11700
C1091       C  0.02534951  0.51885454  0.86972029     0.01200
C1092       C  0.02670816  0.52958651  0.88781092    -0.31700
C1093       C  0.02705805  0.45359343  0.79623723     0.02500
C1094       C  0.01753805  0.43987927  0.78331222    -0.33300
H1095       H  0.05167496  0.45159600  0.83781736     0.13600
H1096       H  0.05015745  0.47967593  0.86968109     0.13400
H1097       H  0.00528398  0.52287225  0.82606880     0.13300
H1098       H  0.00679701  0.49478818  0.79420564     0.12300
C1099       C  0.82340075  0.49227627  0.95965039     0.18600
C1100       C  0.80543707  0.49722148  0.97676191    -0.10500
C1101       C  0.78573178  0.48234754  0.98079643    -0.11300
C1102       C  0.78374246  0.46242021  0.96772140     0.20200
C1103       C  0.80166039  0.45748099  0.95054650    -0.13400
C1104       C  0.82138688  0.47239711  0.94648334    -0.11700
C1105       C  0.76481163  0.44628526  0.97401869     0.01200
C1106       C  0.75079083  0.43448894  0.98514218    -0.31700
C1107       C  0.84390245  0.50749329  0.95556663     0.02500
C1108       C  0.86140326  0.51941283  0.95078991    -0.33300
H1109       H  0.80678759  0.51244538  0.98712905     0.13600
H1110       H  0.77228912  0.48617518  0.99446090     0.13400
H1111       H  0.80064115  0.44197253  0.94062728     0.13300
H1112       H  0.83520169  0.46832672  0.93324496     0.12300
C1113       C  0.92048610  0.47207179  0.81443555     0.18600
C1114       C  0.90021506  0.47461247  0.82977162    -0.10500
C1115       C  0.90128044  0.49031209  0.84824253    -0.11300
C1116       C  0.92265899  0.50351798  0.85171362     0.20200
C1117       C  0.94276413  0.50120871  0.83621828    -0.13400
C1118       C  0.94160156  0.48572270  0.81763710    -0.11700
C1119       C  0.92396971  0.51869053  0.87169544     0.01200
C1120       C  0.92165471  0.52922846  0.88984120    -0.31700
C1121       C  0.92121164  0.45433465  0.79677592     0.02500
C1122       C  0.92962635  0.44027628  0.78343559    -0.33300
H1123       H  0.88384520  0.46418300  0.82778663     0.13600
H1124       H  0.88558872  0.49184668  0.86013005     0.13400
H1125       H  0.95943307  0.51116045  0.83864724     0.13300
H1126       H  0.95746731  0.48415354  0.80601260     0.12300
C1127       C  0.91961769  0.47875128  0.24234735     0.18600
C1128       C  0.93789656  0.49565391  0.24133426    -0.10500
C1129       C  0.93918577  0.51036077  0.22199659    -0.11300
C1130       C  0.92222334  0.50834376  0.20333837     0.20200
C1131       C  0.90359224  0.49182294  0.20461164    -0.13400
C1132       C  0.90234187  0.47708535  0.22391092    -0.11700
C1133       C  0.92405945  0.52244148  0.18244428     0.01200
C1134       C  0.92227251  0.53191283  0.16355571    -0.31700
C1135       C  0.92105725  0.46158416  0.26061649     0.02500
C1136       C  0.92952245  0.44743169  0.27383627    -0.33300
H1137       H  0.95170211  0.49701112  0.25517184     0.13600
H1138       H  0.95372413  0.52293675  0.22137579     0.13400
H1139       H  0.89034019  0.48997316  0.19035682     0.13300
H1140       H  0.88837390  0.46398506  0.22408282     0.12300
C1141       C  0.78434858  0.46481239  0.08636681     0.18600
C1142       C  0.80926008  0.45917122  0.08200571    -0.10500
C1143       C  0.82819058  0.47486263  0.08587553    -0.11300
C1144       C  0.82247765  0.49644294  0.09404773     0.20200
C1145       C  0.79755541  0.50219565  0.09842358    -0.13400
C1146       C  0.77854043  0.48644902  0.09449268    -0.11700
C1147       C  0.84249218  0.51211222  0.09856362     0.01200
C1148       C  0.86069760  0.52320356  0.10324922    -0.31700
C1149       C  0.76490970  0.44921431  0.07975081     0.02500
C1150       C  0.75079505  0.43713223  0.06900886    -0.33300
H1151       H  0.81403445  0.44272274  0.07522801     0.13600
H1152       H  0.84733076  0.47017002  0.08242352     0.13400
H1153       H  0.79282531  0.51881018  0.10476129     0.13300
H1154       H  0.75934160  0.49123513  0.09744887     0.12300
C1155       C  0.03165979  0.75224137  0.23530675     0.18600
C1156       C  0.01141817  0.75164421  0.21963535    -0.10500
C1157       C  0.01040497  0.73559439  0.20162562    -0.11300
C1158       C  0.02956445  0.71984456  0.19909618     0.20200
C1159       C  0.04992429  0.72051097  0.21461129    -0.13400
C1160       C  0.05091047  0.73656013  0.23272936    -0.11700
C1161       C  0.02932842  0.70425924  0.17949421     0.01200
C1162       C  0.03178287  0.69361871  0.16146260    -0.31700
C1163       C  0.03109418  0.76791867  0.25485815     0.02500
C1164       C  0.02275952  0.78002407  0.27010382    -0.33300
H1165       H  0.99629668  0.76354758  0.22141604     0.13600
H1166       H  0.99479776  0.73557239  0.18956302     0.13400
H1167       H  0.06508468  0.70867334  0.21264600     0.13300
H1168       H  0.06654855  0.73663591  0.24476145     0.12300
C1169       C  0.17069074  0.75617921  0.07888035     0.18600
C1170       C  0.15531670  0.76038661  0.09834279    -0.10500
C1171       C  0.13556391  0.74583350  0.10361770    -0.11300
C1172       C  0.13091621  0.72698017  0.08944086     0.20200
C1173       C  0.14672157  0.72240035  0.07037643    -0.13400
C1174       C  0.16648798  0.73693891  0.06511621    -0.11700
C1175       C  0.10947137  0.71291795  0.09411257     0.01200
C1176       C  0.09104723  0.70226919  0.09923881    -0.31700
C1177       C  0.18887743  0.77262973  0.07126290     0.02500
C1178       C  0.20179246  0.78561073  0.06027299    -0.33300
H1179       H  0.15811901  0.77525027  0.10900967     0.13600
H1180       H  0.12354040  0.74958674  0.11843224     0.13400
H1181       H  0.14342711  0.70791466  0.05926083     0.13300
H1182       H  0.17802405  0.73355151  0.04985789     0.12300
C1183       C  0.92503598  0.71997354  0.20188268     0.18600
C1184       C  0.91029659  0.71611445  0.22193244    -0.10500
C1185       C  0.90946064  0.73200536  0.24023024    -0.11300
C1186       C  0.92313042  0.75198633  0.23846668     0.20200
C1187       C  0.93763795  0.75587346  0.21831157    -0.13400
C1188       C  0.93849097  0.74003964  0.20011006    -0.11700
C1189       C  0.92522631  0.76734991  0.25814147     0.01200
C1190       C  0.93486806  0.77944523  0.27264187    -0.31700
C1191       C  0.92489942  0.70440360  0.18224347     0.02500
C1192       C  0.92229115  0.69415173  0.16396782    -0.33300
H1193       H  0.89947611  0.70084621  0.22342271     0.13600
H1194       H  0.89849860  0.72856262  0.25583492     0.13400
H1195       H  0.94863831  0.77104911  0.21682566     0.13300
H1196       H  0.94957960  0.74349877  0.18458845     0.12300
C1197       C  0.82361874  0.73275606  0.09551184     0.18600
C1198       C  0.79931732  0.72439380  0.09325771    -0.10500
C1199       C  0.77921906  0.73912495  0.08985043    -0.11300
C1200       C  0.78313564  0.76240677  0.08885501     0.20200
C1201       C  0.80741772  0.77075864  0.09134471    -0.13400
C1202       C  0.82750206  0.75604027  0.09474676    -0.11700
C1203       C  0.76295185  0.77736169  0.08222921     0.01200
C1204       C  0.74808696  0.78877064  0.07147892    -0.31700
C1205       C  0.84455243  0.71762639  0.09881079     0.02500
C1206       C  0.86257243  0.70596311  0.10287358    -0.33300
H1207       H  0.79593275  0.70648129  0.09383537     0.13600
H1208       H  0.76069744  0.73231827  0.08746833     0.13400
H1209       H  0.81091513  0.78862613  0.09013006     0.13300
H1210       H  0.84611866  0.76281833  0.09648700     0.12300
C1211       C  0.91948011  0.74917462  0.81161841     0.18600
C1212       C  0.90403618  0.75256146  0.83116995    -0.10500
C1213       C  0.90399500  0.73706744  0.84976751    -0.11300
C1214       C  0.91952662  0.71810581  0.84915766     0.20200
C1215       C  0.93484132  0.71458377  0.82949862    -0.13400
C1216       C  0.93483104  0.73006367  0.81085373    -0.11700
C1217       C  0.91982743  0.70290440  0.86913813     0.01200
C1218       C  0.91720583  0.69301040  0.88764424    -0.31700
C1219       C  0.92203708  0.76627635  0.79361274     0.02500
C1220       C  0.93146576  0.77908516  0.77965386    -0.33300
H1221       H  0.89243803  0.76739260  0.83228958     0.13600
H1222       H  0.89211238  0.74008249  0.86486693     0.13400
H1223       H  0.94695082  0.70007462  0.82869672     0.13300
H1224       H  0.94716380  0.72736388  0.79601699     0.12300
C1225       C  0.78283035  0.76275204  0.96905960     0.18600
C1226       C  0.78054079  0.74035082  0.97639789    -0.10500
C1227       C  0.79966144  0.72492160  0.97193216    -0.11300
C1228       C  0.82129331  0.73181122  0.96016534     0.20200
C1229       C  0.82349227  0.75417491  0.95270541    -0.13400
C1230       C  0.80438786  0.76960455  0.95719510    -0.11700
C1231       C  0.84132008  0.71615833  0.95560411     0.01200
C1232       C  0.85887937  0.70445248  0.95034689    -0.31700
C1233       C  0.76440636  0.77898388  0.97633691     0.02500
C1234       C  0.75044867  0.79068680  0.98763481    -0.33300
H1235       H  0.76419587  0.73493430  0.98603263     0.13600
H1236       H  0.79768787  0.70773646  0.97786857     0.13400
H1237       H  0.84012554  0.75974668  0.94364116     0.13300
H1238       H  0.80665628  0.78693633  0.95185359     0.12300
C1239       C  0.16431988  0.76557409  0.95915428     0.18600
C1240       C  0.13949144  0.77284993  0.95944455    -0.10500
C1241       C  0.11999149  0.75736721  0.95714059    -0.11300
C1242       C  0.12506346  0.73439151  0.95465996     0.20200
C1243       C  0.14989528  0.72711600  0.95399077    -0.13400
C1244       C  0.16941966  0.74261896  0.95631530    -0.11700
C1245       C  0.10476639  0.71850104  0.95227266     0.01200
C1246       C  0.08724983  0.70617449  0.94856618    -0.31700
C1247       C  0.18405679  0.78101792  0.96551094     0.02500
C1248       C  0.19867843  0.79230612  0.97663183    -0.33300
H1249       H  0.13517456  0.79042598  0.96213959     0.13600
H1250       H  0.10093563  0.76329300  0.95760594     0.13400
H1251       H  0.15416084  0.70944707  0.95199435     0.13300
H1252       H  0.18845323  0.73662622  0.95656790     0.12300
C1253       C  0.02963761  0.74292608  0.80771534     0.18600
C1254       C  0.04999323  0.74195483  0.82311645    -0.10500
C1255       C  0.04988974  0.72683417  0.84209465    -0.11300
C1256       C  0.02937531  0.71267248  0.84597657     0.20200
C1257       C  0.00925855  0.71333237  0.83033916    -0.13400
C1258       C  0.00942292  0.72833208  0.81131640    -0.11700
C1259       C  0.02848006  0.69882631  0.86694120     0.01200
C1260       C  0.03038924  0.69007962  0.88610552    -0.31700
C1261       C  0.02786489  0.76003999  0.78955926     0.02500
C1262       C  0.01909754  0.77367039  0.77601345    -0.33300
H1263       H  0.06561860  0.75322375  0.82082950     0.13600
H1264       H  0.06553024  0.72662139  0.85413858     0.13400
H1265       H  0.99324632  0.70263063  0.83314001     0.13300
H1266       H  0.99346426  0.72891609  0.79970464     0.12300
loop_ 
_geom_bond_atom_site_label_1 
_geom_bond_atom_site_label_2 
_geom_bond_distance 
_geom_bond_site_symmetry_2 
_ccdc_geom_bond_type 
C1            N2   1.349       .  A
C1            N6   1.359       .  A
C1         C1246   1.446       .  S
N2            C3   1.353       .  A
C3            N4   1.367       .  A
C3         C1260   1.441       .  S
N4            C5   1.368       .  A
C5            N6   1.369       .  A
C5           C51   1.490       .  S
C7            N8   1.357       .  A
C7           N12   1.351       .  A
C7         C1232   1.443       .  S
N8            C9   1.366       .  A
C9           N10   1.369       .  A
C9           C80   1.491       .  S
N10          C11   1.369       .  A
C11          N12   1.355       .  A
C11        C1218   1.445       .  S
C13          N14   1.370       .  A
C13          N18   1.354       .  A
C13        C1192   1.443       .  S
N14          C15   1.370       .  A
C15          N16   1.369       .  A
C15          C71   1.494       .  S
N16          C17   1.359       .  A
C17          N18   1.349       .  A
C17        C1206   1.448       .  S
C19          N20   1.354       .  A
C19          N24   1.368       .  A
C19        C1162   1.441       .  S
N20          C21   1.349       .  A
C21          N22   1.356       .  A
C21        C1176   1.444       .  S
N22          C23   1.366       .  A
C23          N24   1.368       .  A
C23          C60   1.487       .  S
C25          N26   1.371       .  A
C25          N30   1.354       .  A
C25        C1134   1.449       .  S
N26          C27   1.371       .  A
C27          N28   1.365       .  A
C27          C77   1.490       .  S
N28          C29   1.356       .  A
C29          N30   1.350       .  A
C29        C1148   1.442       .  S
C31          N32   1.348       .  A
C31          N36   1.356       .  A
C31        C1108   1.441       .  S
N32          C33   1.353       .  A
C33          N34   1.369       .  A
C33        C1120   1.443       .  S
N34          C35   1.370       .  A
C35          N36   1.367       .  A
C35          C74   1.489       .  S
C37          N38   1.347       .  A
C37          N42   1.359       .  A
C37        C1080   1.445       .  S
N38          C39   1.352       .  A
C39          N40   1.370       .  A
C39        C1092   1.441       .  S
N40          C41   1.370       .  A
C41          N42   1.370       .  A
C41          C57   1.492       .  S
C43          N44   1.353       .  A
C43          N48   1.368       .  A
C43        C1052   1.441       .  S
N44          C45   1.349       .  A
C45          N46   1.357       .  A
C45        C1066   1.440       .  S
N46          C47   1.367       .  A
C47          N48   1.368       .  A
C47          C54   1.486       .  S
O49         Zr61   2.429   1_556  S
O49          C51   1.285       .  A
O50         Zr87   2.483   1_455  S
O50          C51   1.298       .  A
O52         Zr64   2.427       .  S
O52          C54   1.286       .  A
O53         Zr88   2.478   1_455  S
O53          C54   1.296       .  A
O55         Zr64   2.427   1_556  S
O55          C57   1.285       .  A
O56         Zr87   2.488   1_455  S
O56          C57   1.298       .  A
O58         Zr61   2.428       .  S
O58          C60   1.286       .  A
O59         Zr88   2.475   1_455  S
O59          C60   1.296       .  A
Zr61         O62   2.437       .  S
Zr61         O63   2.438       .  S
Zr61         O67   2.373       .  S
Zr61         O68   2.370       .  S
Zr61         O91   2.367   1_455  S
Zr61         O93   2.371   1_455  S
O62         H105   0.990       .  S
O63         H104   0.990       .  S
O63         H108   0.990       .  S
Zr64         O65   2.434       .  S
Zr64         O66   2.436       .  S
Zr64         O68   2.367       .  S
Zr64         O67   2.367       .  S
Zr64         O92   2.368   1_455  S
Zr64         O94   2.372   1_455  S
O65         H106   0.990       .  S
O65         H109   0.990       .  S
O66          H99   0.990       .  S
O67         Zr87   2.399   1_454  S
O68         Zr88   2.402   1_455  S
O68          H95   0.967       .  S
O69         Zr81   2.436       .  S
O69          C71   1.288       .  A
O70         Zr88   2.486       .  S
O70          C71   1.298       .  A
O72         Zr84   2.433   1_556  S
O72          C74   1.287       .  A
O73         Zr87   2.478       .  S
O73          C74   1.296       .  A
O75         Zr84   2.441       .  S
O75          C77   1.289       .  A
O76         Zr88   2.470       .  S
O76          C77   1.295       .  A
O78         Zr81   2.439   1_556  S
O78          C80   1.289       .  A
O79         Zr87   2.479       .  S
O79          C80   1.297       .  A
Zr81         O82   2.436       .  S
Zr81         O83   2.436       .  S
Zr81         O89   2.372       .  S
Zr81         O90   2.370       .  S
Zr81         O93   2.373       .  S
Zr81         O91   2.371       .  S
O82         H102   0.990       .  S
O82         H107   0.990       .  S
O83         H103   0.990       .  S
Zr84         O85   2.435       .  S
Zr84         O86   2.435       .  S
Zr84         O90   2.371       .  S
Zr84         O89   2.368       .  S
Zr84         O94   2.370       .  S
Zr84         O92   2.371       .  S
O85         H101   0.990       .  S
O86         H100   0.990       .  S
O86         H110   0.990       .  S
Zr87         O90   2.405   1_556  S
Zr87         O92   2.403   1_556  S
Zr87         O93   2.406   1_556  S
Zr88         O89   2.404       .  S
Zr88         O91   2.397       .  S
Zr88         O94   2.400       .  S
O89          H97   0.965       .  S
O92          H96   0.965   1_554  S
O93          H98   0.964   1_554  S
C111        N112   1.356       .  A
C111        N116   1.349       .  A
C111       C1022   1.439       .  S
N112        C113   1.365       .  A
C113        N114   1.370       .  A
C113        C161   1.487       .  S
N114        C115   1.368       .  A
C115        N116   1.353       .  A
C115       C1036   1.442   1_545  S
C117        N118   1.358       .  A
C117        N122   1.348       .  A
C117       C1010   1.442       .  S
N118        C119   1.367       .  A
C119        N120   1.372       .  A
C119        C190   1.494       .  S
N120        C121   1.370       .  A
C121        N122   1.352       .  A
C121        C994   1.444   1_545  S
C123        N124   1.366       .  A
C123        N128   1.353       .  A
C123        C966   1.440       .  S
N124        C125   1.368       .  A
C125        N126   1.366       .  A
C125        C181   1.485       .  S
N126        C127   1.358       .  A
C127        N128   1.349       .  A
C127        C980   1.440       .  S
C129        N130   1.354       .  A
C129        N134   1.370       .  A
C129        C938   1.445       .  S
N130        C131   1.349       .  A
C131        N132   1.355       .  A
C131        C954   1.441       .  S
N132        C133   1.365       .  A
C133        N134   1.370       .  A
C133        C170   1.489       .  S
C135        N136   1.367       .  A
C135        N140   1.355       .  A
C135        C912   1.443       .  S
N136        C137   1.368       .  A
C137        N138   1.368       .  A
C137        C187   1.490       .  S
N138        C139   1.360       .  A
C139        N140   1.351       .  A
C139        C924   1.447       .  S
C141        N142   1.353       .  A
C141        N146   1.348       .  A
C141        C882   1.432       .  S
N142        C143   1.362       .  A
C143        N144   1.368       .  A
C143        C184   1.481       .  S
N144        C145   1.367       .  A
C145        N146   1.353       .  A
C145        C896   1.439   1_545  S
C147        N148   1.349       .  A
C147        N152   1.357       .  A
C147        C854   1.437       .  S
N148        C149   1.352       .  A
C149        N150   1.369       .  A
C149        C870   1.447   1_545  S
N150        C151   1.371       .  A
C151        N152   1.365       .  A
C151        C167   1.489       .  S
C153        N154   1.352       .  A
C153        N158   1.371       .  A
C153        C842   1.447       .  S
N154        C155   1.349       .  A
C155        N156   1.357       .  A
C155        C826   1.439       .  S
N156        C157   1.365       .  A
C157        N158   1.373       .  A
C157        C164   1.493       .  S
O159       Zr171   2.444       .  S
O159        C161   1.289       .  A
O160       Zr197   2.465       .  S
O160        C161   1.293       .  A
O162       Zr174   2.462       .  S
O162        C164   1.293       .  A
O163       Zr198   2.464       .  S
O163        C164   1.293       .  A
O165       Zr174   2.454       .  S
O165        C167   1.292       .  A
O166       Zr197   2.459       .  S
O166        C167   1.293       .  A
O168       Zr171   2.438       .  S
O168        C170   1.289       .  A
O169       Zr198   2.472       .  S
O169        C170   1.295       .  A
Zr171       O172   2.435       .  S
Zr171       O173   2.435       .  S
Zr171       O177   2.370       .  S
Zr171       O178   2.371       .  S
Zr171       O201   2.371       .  S
Zr171       O203   2.369       .  S
O172        H215   0.990       .  S
O173        H214   0.990       .  S
O173        H218   0.990       .  S
Zr174       O175   2.436       .  S
Zr174       O176   2.434       .  S
Zr174       O178   2.373       .  S
Zr174       O177   2.374       .  S
Zr174       O202   2.376       .  S
Zr174       O204   2.377       .  S
O175        H216   0.990       .  S
O175        H219   0.990       .  S
O176        H209   0.990       .  S
O177       Zr197   2.399       .  S
O178       Zr198   2.403       .  S
O178        H205   0.965       .  S
O179       Zr191   2.441       .  S
O179        C181   1.289       .  A
O180       Zr198   2.463   1_556  S
O180        C181   1.294       .  A
O182       Zr194   2.430       .  S
O182        C184   1.287       .  A
O183       Zr197   2.459   1_556  S
O183        C184   1.292       .  A
O185       Zr194   2.443       .  S
O185        C187   1.289       .  A
O186       Zr198   2.472       .  S
O186        C187   1.295   1_554  A
O188       Zr191   2.451       .  S
O188        C190   1.290       .  A
O189       Zr197   2.470   1_556  S
O189        C190   1.294       .  A
Zr191       O192   2.434       .  S
Zr191       O193   2.435       .  S
Zr191       O199   2.373       .  S
Zr191       O200   2.369       .  S
Zr191       O203   2.368   1_556  S
Zr191       O201   2.374   1_556  S
O192        H212   0.990       .  S
O192        H217   0.990       .  S
O193        H213   0.989   1_556  S
Zr194       O195   2.435       .  S
Zr194       O196   2.434       .  S
Zr194       O200   2.375       .  S
Zr194       O199   2.369       .  S
Zr194       O204   2.371   1_556  S
Zr194       O202   2.369   1_556  S
O195        H211   0.990       .  S
O196        H210   0.990   1_556  S
O196        H220   0.990       .  S
Zr197       O200   2.396   1_554  S
Zr197       O202   2.402       .  S
Zr197       O203   2.393       .  S
Zr198       O199   2.399   1_554  S
Zr198       O201   2.397       .  S
Zr198       O204   2.397       .  S
O199        H207   0.966       .  S
O202        H206   0.967       .  S
O203        H208   0.966       .  S
C221        N222   1.350       .  A
C221        N226   1.357       .  A
C221        C800   1.441       .  S
N222        C223   1.353   1_545  A
C223        N224   1.371   1_565  A
C223        C814   1.449       .  S
N224        C225   1.373       .  A
C225        N226   1.365       .  A
C225        C277   1.494       .  S
C227        N228   1.348       .  A
C227        N232   1.357       .  A
C227        C784   1.440       .  S
N228        C229   1.352   1_545  A
C229        N230   1.369   1_565  A
C229        C770   1.442       .  S
N230        C231   1.370       .  A
C231        N232   1.367       .  A
C231        C294   1.493       .  S
C233        N234   1.354       .  A
C233        N238   1.368       .  A
C233        C742   1.445       .  S
N234        C235   1.350       .  A
C235        N236   1.359       .  A
C235        C756   1.445       .  S
N236        C237   1.367       .  A
C237        N238   1.370       .  A
C237        C297   1.490       .  S
C239        N240   1.368       .  A
C239        N244   1.352       .  A
C239        C714   1.441       .  S
N240        C241   1.370       .  A
C241        N242   1.365       .  A
C241        C274   1.486       .  S
N242        C243   1.356       .  A
C243        N244   1.348       .  A
C243        C730   1.437       .  S
C245        N246   1.354       .  A
C245        N250   1.371       .  A
C245        C686   1.451       .  S
N246        C247   1.350       .  A
C247        N248   1.358       .  A
C247        C700   1.444       .  S
N248        C249   1.367       .  A
C249        N250   1.372       .  A
C249        C291   1.494       .  S
C251        N252   1.358       .  A
C251        N256   1.349       .  A
C251        C660   1.440       .  S
N252        C253   1.367       .  A
C253        N254   1.370       .  A
C253        C300   1.490       .  S
N254        C255   1.368   1_545  A
C255        N256   1.352   1_565  A
C255        C674   1.442       .  S
C257        N258   1.356       .  A
C257        N262   1.347       .  A
C257        C632   1.438       .  S
N258        C259   1.366       .  A
C259        N260   1.370       .  A
C259        C271   1.487       .  S
N260        C261   1.369       .  A
C261        N262   1.352       .  A
C261        C646   1.442   1_545  S
C263        N264   1.370       .  A
C263        N268   1.352       .  A
C263        C602   1.445       .  S
N264        C265   1.372       .  A
C265        N266   1.366       .  A
C265        C280   1.491       .  S
N266        C267   1.357       .  A
C267        N268   1.349       .  A
C267        C618   1.440       .  S
O269       Zr281   2.429       .  S
O269        C271   1.287       .  A
O270       Zr307   2.475   1_455  S
O270        C271   1.296       .  A
O272       Zr284   2.443       .  S
O272        C274   1.289       .  A
O273       Zr308   2.464   1_455  S
O273        C274   1.293       .  A
O275       Zr284   2.456       .  S
O275        C277   1.291       .  A
O276       Zr307   2.466   1_455  S
O276        C277   1.294       .  A
O278       Zr281   2.444       .  S
O278        C280   1.290       .  A
O279       Zr308   2.471   1_455  S
O279        C280   1.295       .  A
Zr281       O282   2.436       .  S
Zr281       O283   2.436       .  S
Zr281       O287   2.373       .  S
Zr281       O288   2.366       .  S
Zr281       O311   2.371   1_455  S
Zr281       O313   2.376   1_455  S
O282        H325   0.990       .  S
O283        H324   0.990       .  S
O283        H328   0.990       .  S
Zr284       O285   2.438       .  S
Zr284       O286   2.435       .  S
Zr284       O288   2.375       .  S
Zr284       O287   2.370       .  S
Zr284       O312   2.371   1_455  S
Zr284       O314   2.375   1_455  S
O285        H326   0.990       .  S
O285        H329   0.990       .  S
O286        H319   0.990       .  S
O287       Zr307   2.402   1_455  S
O288       Zr308   2.404   1_455  S
O288        H315   0.966       .  S
O289       Zr301   2.447       .  S
O289        C291   1.290       .  A
O290       Zr308   2.474       .  S
O290        C291   1.296       .  A
O292       Zr304   2.440       .  S
O292        C294   1.289       .  A
O293       Zr307   2.477       .  S
O293        C294   1.296       .  A
O295       Zr304   2.447       .  S
O295        C297   1.289       .  A
O296       Zr308   2.469       .  S
O296        C297   1.295       .  A
O298       Zr301   2.445       .  S
O298        C300   1.289       .  A
O299       Zr307   2.467       .  S
O299        C300   1.294       .  A
Zr301       O302   2.435       .  S
Zr301       O303   2.435       .  S
Zr301       O309   2.367       .  S
Zr301       O310   2.368       .  S
Zr301       O313   2.375       .  S
Zr301       O311   2.378       .  S
O302        H322   0.990       .  S
O302        H327   0.990       .  S
O303        H323   0.990       .  S
Zr304       O305   2.436       .  S
Zr304       O306   2.435       .  S
Zr304       O310   2.371       .  S
Zr304       O309   2.370       .  S
Zr304       O314   2.372       .  S
Zr304       O312   2.374       .  S
O305        H321   0.990       .  S
O306        H320   0.990       .  S
O306        H330   0.990       .  S
Zr307       O310   2.397       .  S
Zr307       O312   2.400       .  S
Zr307       O313   2.401       .  S
Zr308       O309   2.400       .  S
Zr308       O311   2.397       .  S
Zr308       O314   2.399       .  S
O309        H317   0.966       .  S
O312        H316   0.966       .  S
O313        H318   0.965       .  S
C331       C1050   1.450   1_655  S
C331        C332   1.386       .  A
C331        C336   1.417       .  A
C332        C333   1.388       .  A
C332        H351   1.089       .  S
C333       C1136   1.456       .  S
C333        C334   1.424       .  A
C334        C335   1.430       .  A
C334        C341   1.407       .  A
C335        C336   1.428       .  A
C335        C340   1.426       .  A
C336        C337   1.406   1_655  A
C337        C338   1.400       .  A
C337        H347   1.083       .  S
C338        C339   1.405   1_455  A
C338        H348   1.083       .  S
C339        C340   1.430       .  A
C339        C346   1.418       .  A
C340        C343   1.429       .  A
C341        C342   1.405       .  A
C341        H349   1.083       .  S
C342        C343   1.408       .  A
C342        H350   1.083       .  S
C343        C344   1.423       .  A
C344        C688   1.454       .  S
C344        C345   1.389       .  A
C345        C346   1.387       .  A
C345        H352   1.087       .  S
C346        C604   1.454   1_655  S
C353        C856   1.446       .  S
C353        C354   1.393       .  A
C353        C358   1.413       .  A
C354        C355   1.393       .  A
C354        H373   1.087       .  S
C355        C828   1.446       .  S
C355        C356   1.414       .  A
C356        C357   1.423       .  A
C356        C363   1.406       .  A
C357        C358   1.424       .  A
C357        C362   1.420       .  A
C358        C359   1.405       .  A
C359        C360   1.395       .  A
C359        H369   1.083       .  S
C360        C361   1.405       .  A
C360        H370   1.083       .  S
C361        C362   1.423       .  A
C361        C368   1.412       .  A
C362        C365   1.424       .  A
C363        C364   1.398       .  A
C363        H371   1.083       .  S
C364        C365   1.405       .  A
C364        H372   1.083       .  S
C365        C366   1.415       .  A
C366        C616   1.447       .  S
C366        C367   1.392       .  A
C367        C368   1.391       .  A
C367        H374   1.087       .  S
C368        C630   1.444       .  S
C375       C1064   1.448       .  S
C375        C376   1.392       .  A
C375        C380   1.414       .  A
C376        C377   1.392       .  A
C376        H395   1.088       .  S
C377       C1078   1.452   1_554  S
C377        C378   1.419       .  A
C378        C379   1.426       .  A
C378        C385   1.407   1_554  A
C379        C380   1.425       .  A
C379        C384   1.422       .  A
C380        C381   1.406       .  A
C381        C382   1.397       .  A
C381        H391   1.083       .  S
C382        C383   1.404       .  A
C382        H392   1.083       .  S
C383        C384   1.426       .  A
C383        C390   1.413       .  A
C384        C387   1.427       .  A
C385        C386   1.401       .  A
C385        H393   1.083       .  S
C386        C387   1.406   1_556  A
C386        H394   1.083       .  S
C387        C388   1.418       .  A
C388        C910   1.450   1_554  S
C388        C389   1.390       .  A
C389        C390   1.388       .  A
C389        H396   1.088       .  S
C390        C840   1.447       .  S
C397       C1024   1.445       .  S
C397        C398   1.391       .  A
C397        C402   1.414       .  A
C398        C399   1.390       .  A
C398        H417   1.088       .  S
C399        C952   1.446       .  S
C399        C400   1.414       .  A
C400        C401   1.424       .  A
C400        C407   1.405       .  A
C401        C402   1.424       .  A
C401        C406   1.420       .  A
C402        C403   1.406       .  A
C403        C404   1.398       .  A
C403        H413   1.083       .  S
C404        C405   1.406       .  A
C404        H414   1.083       .  S
C405        C406   1.424       .  A
C405        C412   1.414       .  A
C406        C409   1.424       .  A
C407        C408   1.397       .  A
C407        H415   1.083       .  S
C408        C409   1.405       .  A
C408        H416   1.083       .  S
C409        C410   1.414       .  A
C410        C702   1.447       .  S
C410        C411   1.391       .  A
C411        C412   1.392       .  A
C411        H418   1.087       .  S
C412        C658   1.445       .  S
C419       C1164   1.449       .  S
C419        C420   1.389   1_455  A
C419        C424   1.418       .  A
C420        C421   1.387       .  A
C420        H439   1.088       .  S
C421       C1190   1.448       .  S
C421        C422   1.414       .  A
C422        C423   1.427       .  A
C422        C429   1.404       .  A
C423        C424   1.426   1_655  A
C423        C428   1.422       .  A
C424        C425   1.407       .  A
C425        C426   1.402       .  A
C425        H435   1.083       .  S
C426        C427   1.406       .  A
C426        H436   1.083       .  S
C427        C428   1.428   1_455  A
C427        C434   1.420       .  A
C428        C431   1.425       .  A
C429        C430   1.397       .  A
C429        H437   1.083       .  S
C430        C431   1.406       .  A
C430        H438   1.083       .  S
C431        C432   1.413       .  A
C432        C672   1.445       .  S
C432        C433   1.389       .  A
C433        C434   1.389   1_655  A
C433        H440   1.088       .  S
C434        C644   1.452       .  S
C441        C926   1.451       .  S
C441        C442   1.390       .  A
C441        C446   1.418       .  A
C442        C443   1.390       .  A
C442        H461   1.088       .  S
C443        C884   1.441       .  S
C443        C444   1.411       .  A
C444        C445   1.422       .  A
C444        C451   1.406       .  A
C445        C446   1.426       .  A
C445        C450   1.420       .  A
C446        C447   1.405       .  A
C447        C448   1.399       .  A
C447        H457   1.083       .  S
C448        C449   1.407       .  A
C448        H458   1.083       .  S
C449        C450   1.423       .  A
C449        C456   1.414       .  A
C450        C453   1.426       .  A
C451        C452   1.396       .  A
C451        H459   1.083       .  S
C452        C453   1.405       .  A
C452        H460   1.083       .  S
C453        C454   1.415       .  A
C454        C798   1.449       .  S
C454        C455   1.390       .  A
C455        C456   1.393       .  A
C455        H462   1.087       .  S
C456        C728   1.445       .  S
C463       C1122   1.454       .  S
C463        C464   1.389       .  A
C463        C468   1.422       .  A
C464        C465   1.386       .  A
C464        H483   1.086       .  S
C465       C1094   1.449   1_655  S
C465        C466   1.414       .  A
C466        C467   1.427       .  A
C466        C473   1.405   1_655  A
C467        C468   1.429       .  A
C467        C472   1.424       .  A
C468        C469   1.406       .  A
C469        C470   1.404       .  A
C469        H479   1.083       .  S
C470        C471   1.407       .  A
C470        H480   1.083       .  S
C471        C472   1.427       .  A
C471        C478   1.420       .  A
C472        C475   1.428       .  A
C473        C474   1.399       .  A
C473        H481   1.083       .  S
C474        C475   1.405   1_455  A
C474        H482   1.083       .  S
C475        C476   1.416       .  A
C476        C716   1.450   1_655  S
C476        C477   1.387       .  A
C477        C478   1.389       .  A
C477        H484   1.088       .  S
C478        C744   1.450       .  S
C485       C1178   1.452       .  S
C485        C486   1.391       .  A
C485        C490   1.419       .  A
C486        C487   1.391   1_554  A
C486        H505   1.088       .  S
C487       C1248   1.451       .  S
C487        C488   1.418       .  A
C488        C489   1.427   1_556  A
C488        C495   1.406       .  A
C489        C490   1.426       .  A
C489        C494   1.425       .  A
C490        C491   1.407       .  A
C491        C492   1.402       .  A
C491        H501   1.083       .  S
C492        C493   1.406       .  A
C492        H502   1.083       .  S
C493        C494   1.429       .  A
C493        C500   1.422       .  A
C494        C497   1.426       .  A
C495        C496   1.400       .  A
C495        H503   1.083       .  S
C496        C497   1.406   1_556  A
C496        H504   1.083       .  S
C497        C498   1.416       .  A
C498        C898   1.448   1_554  S
C498        C499   1.388       .  A
C499        C500   1.389       .  A
C499        H506   1.088       .  S
C500        C868   1.454       .  S
C507       C1106   1.446   1_554  S
C507        C508   1.391       .  A
C507        C512   1.415       .  A
C508        C509   1.390       .  A
C508        H527   1.088       .  S
C509       C1150   1.449       .  S
C509        C510   1.417       .  A
C510        C511   1.426       .  A
C510        C517   1.406       .  A
C511        C512   1.425       .  A
C511        C516   1.421       .  A
C512        C513   1.406   1_554  A
C513        C514   1.398       .  A
C513        H523   1.083       .  S
C514        C515   1.405   1_556  A
C514        H524   1.083       .  S
C515        C516   1.426       .  A
C515        C522   1.415       .  A
C516        C519   1.426       .  A
C517        C518   1.400       .  A
C517        H525   1.083       .  S
C518        C519   1.405       .  A
C518        H526   1.083       .  S
C519        C520   1.416       .  A
C520        C940   1.448       .  S
C520        C521   1.389       .  A
C521        C522   1.388       .  A
C521        H528   1.088       .  S
C522        C968   1.447   1_554  S
C529       C1220   1.448       .  S
C529        C530   1.387       .  A
C529        C534   1.415       .  A
C530        C531   1.388       .  A
C530        H549   1.087       .  S
C531       C1262   1.451   1_655  S
C531        C532   1.420       .  A
C532        C533   1.427       .  A
C532        C539   1.407   1_655  A
C533        C534   1.428       .  A
C533        C538   1.423       .  A
C534        C535   1.405       .  A
C535        C536   1.398       .  A
C535        H545   1.083       .  S
C536        C537   1.405       .  A
C536        H546   1.083       .  S
C537        C538   1.426       .  A
C537        C544   1.413       .  A
C538        C541   1.428       .  A
C539        C540   1.403       .  A
C539        H547   1.083       .  S
C540        C541   1.407   1_455  A
C540        H548   1.083       .  S
C541        C542   1.421       .  A
C542        C812   1.453   1_655  S
C542        C543   1.389       .  A
C543        C544   1.388       .  A
C543        H550   1.088       .  S
C544        C772   1.447       .  S
C551        C982   1.448       .  S
C551        C552   1.393       .  A
C551        C556   1.415       .  A
C552        C553   1.392       .  A
C552        H571   1.087       .  S
C553       C1008   1.452       .  S
C553        C554   1.417       .  A
C554        C555   1.427       .  A
C554        C561   1.405       .  A
C555        C556   1.423       .  A
C555        C560   1.423       .  A
C556        C557   1.407       .  A
C557        C558   1.400       .  A
C557        H567   1.083       .  S
C558        C559   1.405       .  A
C558        H568   1.083       .  S
C559        C560   1.427       .  A
C559        C566   1.419       .  A
C560        C563   1.422       .  A
C561        C562   1.397       .  A
C561        H569   1.083       .  S
C562        C563   1.406       .  A
C562        H570   1.083       .  S
C563        C564   1.413       .  A
C564        C786   1.446       .  S
C564        C565   1.392       .  A
C565        C566   1.392       .  A
C565        H572   1.087       .  S
C566        C758   1.453       .  S
C573       C1234   1.445   1_554  S
C573        C574   1.390       .  A
C573        C578   1.413       .  A
C574        C575   1.391       .  A
C574        H593   1.088       .  S
C575       C1204   1.453       .  S
C575        C576   1.420       .  A
C576        C577   1.428       .  A
C576        C583   1.406       .  A
C577        C578   1.424       .  A
C577        C582   1.422       .  A
C578        C579   1.407   1_554  A
C579        C580   1.398       .  A
C579        H589   1.083       .  S
C580        C581   1.404   1_556  A
C580        H590   1.083       .  S
C581        C582   1.428       .  A
C581        C588   1.416       .  A
C582        C585   1.424       .  A
C583        C584   1.401       .  A
C583        H591   1.083       .  S
C584        C585   1.407       .  A
C584        H592   1.083       .  S
C585        C586   1.415       .  A
C586       C1038   1.446       .  S
C586        C587   1.390       .  A
C587        C588   1.388       .  A
C587        H594   1.088       .  S
C588        C996   1.450   1_554  S
C595        C603   1.455       .  S
C595        C596   1.405       .  A
C595        C600   1.404       .  A
C596        C597   1.400       .  A
C596        H605   1.083   1_455  S
C597        C598   1.400       .  A
C597        H606   1.083   1_455  S
C598        C601   1.454       .  S
C598        C599   1.408       .  A
C599        C600   1.408       .  A
C599        H607   1.083       .  S
C600        H608   1.083       .  S
C601        C602   1.214       .  T
C603        C604   1.215       .  T
C609        C617   1.446       .  S
C609        C610   1.403       .  A
C609        C614   1.401       .  A
C610        C611   1.404       .  A
C610        H619   1.083       .  S
C611        C612   1.404       .  A
C611        H620   1.083       .  S
C612        C615   1.445       .  S
C612        C613   1.401       .  A
C613        C614   1.399       .  A
C613        H621   1.083       .  S
C614        H622   1.084       .  S
C615        C616   1.209       .  T
C617        C618   1.209       .  T
C623        C631   1.443       .  S
C623        C624   1.400       .  A
C623        C628   1.404       .  A
C624        C625   1.397       .  A
C624        H633   1.083       .  S
C625        C626   1.402       .  A
C625        H634   1.084       .  S
C626        C629   1.441       .  S
C626        C627   1.402       .  A
C627        C628   1.403       .  A
C627        H635   1.083       .  S
C628        H636   1.083       .  S
C629        C630   1.206       .  T
C631        C632   1.208       .  T
C637        C645   1.451       .  S
C637        C638   1.401       .  A
C637        C642   1.405       .  A
C638        C639   1.404       .  A
C638        H647   1.083       .  S
C639        C640   1.405       .  A
C639        H648   1.083       .  S
C640        C643   1.453       .  S
C640        C641   1.403       .  A
C641        C642   1.404       .  A
C641        H649   1.083       .  S
C642        H650   1.084       .  S
C643        C644   1.214       .  T
C645        C646   1.212       .  T
C651        C659   1.445       .  S
C651        C652   1.402       .  A
C651        C656   1.402       .  A
C652        C653   1.401       .  A
C652        H661   1.083       .  S
C653        C654   1.402       .  A
C653        H662   1.083       .  S
C654        C657   1.443       .  S
C654        C655   1.403       .  A
C655        C656   1.400       .  A
C655        H663   1.084       .  S
C656        H664   1.083       .  S
C657        C658   1.207       .  T
C659        C660   1.209       .  T
C665        C673   1.449       .  S
C665        C666   1.405       .  A
C665        C670   1.401       .  A
C666        C667   1.402       .  A
C666        H675   1.083       .  S
C667        C668   1.400       .  A
C667        H676   1.083       .  S
C668        C671   1.445       .  S
C668        C669   1.405       .  A
C669        C670   1.402       .  A
C669        H677   1.084       .  S
C670        H678   1.083       .  S
C671        C672   1.208       .  T
C673        C674   1.211       .  T
C679        C687   1.457       .  S
C679        C680   1.402       .  A
C679        C684   1.408       .  A
C680        C681   1.404       .  A
C680        H689   1.083       .  S
C681        C682   1.405       .  A
C681        H690   1.083       .  S
C682        C685   1.458       .  S
C682        C683   1.404       .  A
C683        C684   1.408       .  A
C683        H691   1.083       .  S
C684        H692   1.083       .  S
C685        C686   1.216       .  T
C687        C688   1.216       .  T
C693        C701   1.445       .  S
C693        C694   1.402       .  A
C693        C698   1.403       .  A
C694        C695   1.401       .  A
C694        H703   1.084       .  S
C695        C696   1.403       .  A
C695        H704   1.083       .  S
C696        C699   1.448       .  S
C696        C697   1.403       .  A
C697        C698   1.403       .  A
C697        H705   1.083       .  S
C698        H706   1.083       .  S
C699        C700   1.211       .  T
C701        C702   1.209       .  T
C707        C715   1.450       .  S
C707        C708   1.401       .  A
C707        C712   1.406       .  A
C708        C709   1.404       .  A
C708        H717   1.083       .  S
C709        C710   1.406       .  A
C709        H718   1.084       .  S
C710        C713   1.449       .  S
C710        C711   1.400       .  A
C711        C712   1.402       .  A
C711        H719   1.083   1_455  S
C712        H720   1.083       .  S
C713        C714   1.211       .  T
C715        C716   1.212       .  T
C721        C729   1.443       .  S
C721        C722   1.404       .  A
C721        C726   1.399       .  A
C722        C723   1.402       .  A
C722        H731   1.083       .  S
C723        C724   1.401       .  A
C723        H732   1.083       .  S
C724        C727   1.443       .  S
C724        C725   1.404       .  A
C725        C726   1.398       .  A
C725        H733   1.084       .  S
C726        H734   1.084       .  S
C727        C728   1.207       .  T
C729        C730   1.207       .  T
C735        C743   1.452       .  S
C735        C736   1.401       .  A
C735        C740   1.407       .  A
C736        C737   1.403       .  A
C736        H745   1.083       .  S
C737        C738   1.405       .  A
C737        H746   1.083       .  S
C738        C741   1.452       .  S
C738        C739   1.402       .  A
C739        C740   1.404       .  A
C739        H747   1.083       .  S
C740        H748   1.084       .  S
C741        C742   1.213       .  T
C743        C744   1.213       .  T
C749        C757   1.451       .  S
C749        C750   1.402       .  A
C749        C754   1.405       .  A
C750        C751   1.403       .  A
C750        H759   1.083       .  S
C751        C752   1.404       .  A
C751        H760   1.083       .  S
C752        C755   1.450       .  S
C752        C753   1.403       .  A
C753        C754   1.404       .  A
C753        H761   1.083       .  S
C754        H762   1.083       .  S
C755        C756   1.212       .  T
C757        C758   1.213       .  T
C763        C771   1.447       .  S
C763        C764   1.401       .  A
C763        C768   1.405       .  A
C764        C765   1.403       .  A
C764        H773   1.083       .  S
C765        C766   1.406       .  A
C765        H774   1.083       .  S
C766        C769   1.450       .  S
C766        C767   1.400       .  A
C767        C768   1.401       .  A
C767        H775   1.083       .  S
C768        H776   1.084       .  S
C769        C770   1.212       .  T
C771        C772   1.210       .  T
C777        C785   1.442       .  S
C777        C778   1.402       .  A
C777        C782   1.402       .  A
C778        C779   1.398       .  A
C778        H787   1.084       .  S
C779        C780   1.400       .  A
C779        H788   1.083       .  S
C780        C783   1.444       .  S
C780        C781   1.405       .  A
C781        C782   1.403       .  A
C781        H789   1.083       .  S
C782        H790   1.083       .  S
C783        C784   1.209       .  T
C785        C786   1.207       .  T
C791        C799   1.446       .  S
C791        C792   1.404       .  A
C791        C796   1.400       .  A
C792        C793   1.403       .  A
C792        H801   1.083       .  S
C793        C794   1.402       .  A
C793        H802   1.083       .  S
C794        C797   1.446       .  S
C794        C795   1.404       .  A
C795        C796   1.400       .  A
C795        H803   1.084       .  S
C796        H804   1.083       .  S
C797        C798   1.210       .  T
C799        C800   1.209       .  T
C805        C813   1.457       .  S
C805        C806   1.406       .  A
C805        C810   1.403       .  A
C806        C807   1.405       .  A
C806        H815   1.083       .  S
C807        C808   1.402       .  A
C807        H816   1.083       .  S
C808        C811   1.455       .  S
C808        C809   1.407       .  A
C809        C810   1.406       .  A
C809        H817   1.084       .  S
C810        H818   1.083       .  S
C811        C812   1.215       .  T
C813        C814   1.216       .  T
C819        C827   1.443       .  S
C819        C820   1.401       .  A
C819        C824   1.403       .  A
C820        C821   1.398       .  A
C820        H829   1.084       .  S
C821        C822   1.401       .  A
C821        H830   1.084       .  S
C822        C825   1.444       .  S
C822        C823   1.403       .  A
C823        C824   1.402       .  A
C823        H831   1.083       .  S
C824        H832   1.083       .  S
C825        C826   1.208       .  T
C827        C828   1.208       .  T
C833        C841   1.454       .  S
C833        C834   1.403       .  A
C833        C838   1.404       .  A
C834        C835   1.401       .  A
C834        H843   1.083       .  S
C835        C836   1.401       .  A
C835        H844   1.084       .  S
C836        C839   1.447       .  S
C836        C837   1.405       .  A
C837        C838   1.406       .  A
C837        H845   1.083       .  S
C838        H846   1.083       .  S
C839        C840   1.210       .  T
C841        C842   1.214       .  T
C847        C855   1.442       .  S
C847        C848   1.403       .  A
C847        C852   1.401       .  A
C848        C849   1.401       .  A
C848        H857   1.083       .  S
C849        C850   1.402       .  A
C849        H858   1.083       .  S
C850        C853   1.443       .  S
C850        C851   1.401       .  A
C851        C852   1.399       .  A
C851        H859   1.084       .  S
C852        H860   1.084       .  S
C853        C854   1.207       .  T
C855        C856   1.207       .  T
C861        C869   1.455       .  S
C861        C862   1.402       .  A
C861        C866   1.405       .  A
C862        C863   1.401       .  A
C862        H871   1.083       .  S
C863        C864   1.403       .  A
C863        H872   1.083       .  S
C864        C867   1.456       .  S
C864        C865   1.407       .  A
C865        C866   1.409       .  A
C865        H873   1.083       .  S
C866        H874   1.083       .  S
C867        C868   1.215       .  T
C869        C870   1.214       .  T
C875        C883   1.438       .  S
C875        C876   1.401       .  A
C875        C880   1.402       .  A
C876        C877   1.399       .  A
C876        H885   1.083       .  S
C877        C878   1.401       .  A
C877        H886   1.083       .  S
C878        C881   1.437       .  S
C878        C879   1.400       .  A
C879        C880   1.397       .  A
C879        H887   1.084       .  S
C880        H888   1.084       .  S
C881        C882   1.204       .  T
C883        C884   1.205       .  T
C889        C897   1.448       .  S
C889        C890   1.401       .  A
C889        C894   1.406       .  A
C890        C891   1.401       .  A
C890        H899   1.083       .  S
C891        C892   1.404       .  A
C891        H900   1.084       .  S
C892        C895   1.447       .  S
C892        C893   1.401       .  A
C893        C894   1.403       .  A
C893        H901   1.083       .  S
C894        H902   1.083       .  S
C895        C896   1.210       .  T
C897        C898   1.210       .  T
C903        C911   1.450       .  S
C903        C904   1.405       .  A
C903        C908   1.401       .  A
C904        C905   1.402       .  A
C904        H913   1.084       .  S
C905        C906   1.400       .  A
C905        H914   1.083       .  S
C906        C909   1.451       .  S
C906        C907   1.407       .  A
C907        C908   1.404       .  A
C907        H915   1.084   1_556  S
C908        H916   1.083   1_556  S
C909        C910   1.212       .  T
C911        C912   1.211       .  T
C917        C925   1.450       .  S
C917        C918   1.404       .  A
C917        C922   1.403       .  A
C918        C919   1.403       .  A
C918        H927   1.083       .  S
C919        C920   1.402       .  A
C919        H928   1.083       .  S
C920        C923   1.452       .  S
C920        C921   1.405       .  A
C921        C922   1.404       .  A
C921        H929   1.083       .  S
C922        H930   1.083       .  S
C923        C924   1.213       .  T
C925        C926   1.212       .  T
C931        C939   1.448       .  S
C931        C932   1.401       .  A
C931        C936   1.406       .  A
C932        C933   1.403       .  A
C932        H941   1.083       .  S
C933        C934   1.405       .  A
C933        H942   1.083       .  S
C934        C937   1.452       .  S
C934        C935   1.402       .  A
C935        C936   1.403       .  A
C935        H943   1.083       .  S
C936        H944   1.084       .  S
C937        C938   1.213       .  T
C939        C940   1.210       .  T
C945        C953   1.445       .  S
C945        C946   1.403       .  A
C945        C950   1.401       .  A
C946        C947   1.403       .  A
C946        H955   1.083       .  S
C947        C948   1.403       .  A
C947        H956   1.083       .  S
C948        C951   1.444       .  S
C948        C949   1.402       .  A
C949        C950   1.400       .  A
C949        H957   1.084       .  S
C950        H958   1.083       .  S
C951        C952   1.208       .  T
C953        C954   1.209       .  T
C959        C967   1.447       .  S
C959        C960   1.400       .  A
C959        C964   1.406       .  A
C960        C961   1.401       .  A
C960        H969   1.083       .  S
C961        C962   1.404       .  A
C961        H970   1.084       .  S
C962        C965   1.447       .  S
C962        C963   1.401       .  A
C963        C964   1.403       .  A
C963        H971   1.083       .  S
C964        H972   1.084       .  S
C965        C966   1.210       .  T
C967        C968   1.210       .  T
C973        C981   1.445       .  S
C973        C974   1.403       .  A
C973        C978   1.402       .  A
C974        C975   1.404       .  A
C974        H983   1.083       .  S
C975        C976   1.404       .  A
C975        H984   1.083       .  S
C976        C979   1.445       .  S
C976        C977   1.401       .  A
C977        C978   1.398       .  A
C977        H985   1.083       .  S
C978        H986   1.084       .  S
C979        C980   1.209       .  T
C981        C982   1.209       .  T
C987        C995   1.450       .  S
C987        C988   1.401       .  A
C987        C992   1.406       .  A
C988        C989   1.404       .  A
C988        H997   1.083       .  S
C989        C990   1.406       .  A
C989        H998   1.084       .  S
C990        C993   1.452       .  S
C990        C991   1.401       .  A
C991        C992   1.403       .  A
C991        H999   1.083       .  S
C992       H1000   1.084       .  S
C993        C994   1.213       .  T
C995        C996   1.211       .  T
C1001      C1009   1.448       .  S
C1001      C1002   1.406       .  A
C1001      C1006   1.400       .  A
C1002      C1003   1.406       .  A
C1002      H1011   1.083       .  S
C1003      C1004   1.404       .  A
C1003      H1012   1.083       .  S
C1004      C1007   1.449       .  S
C1004      C1005   1.403       .  A
C1005      C1006   1.399       .  A
C1005      H1013   1.084       .  S
C1006      H1014   1.083       .  S
C1007      C1008   1.212       .  T
C1009      C1010   1.211       .  T
C1015      C1023   1.443       .  S
C1015      C1016   1.401       .  A
C1015      C1020   1.404       .  A
C1016      C1017   1.399       .  A
C1016      H1025   1.083       .  S
C1017      C1018   1.402       .  A
C1017      H1026   1.083       .  S
C1018      C1021   1.444       .  S
C1018      C1019   1.402       .  A
C1019      C1020   1.402       .  A
C1019      H1027   1.083       .  S
C1020      H1028   1.083       .  S
C1021      C1022   1.209       .  T
C1023      C1024   1.208       .  T
C1029      C1037   1.446       .  S
C1029      C1030   1.405       .  A
C1029      C1034   1.400       .  A
C1030      C1031   1.403       .  A
C1030      H1039   1.084       .  S
C1031      C1032   1.401       .  A
C1031      H1040   1.083       .  S
C1032      C1035   1.449       .  S
C1032      C1033   1.405       .  A
C1033      C1034   1.401       .  A
C1033      H1041   1.084       .  S
C1034      H1042   1.083       .  S
C1035      C1036   1.211       .  T
C1037      C1038   1.209       .  T
C1043      C1051   1.449       .  S
C1043      C1044   1.401       .  A
C1043      C1048   1.405       .  A
C1044      C1045   1.404       .  A
C1044      H1053   1.083       .  S
C1045      C1046   1.407       .  A
C1045      H1054   1.084       .  S
C1046      C1049   1.450       .  S
C1046      C1047   1.401       .  A
C1047      C1048   1.402       .  A
C1047      H1055   1.083       .  S
C1048      H1056   1.084       .  S
C1049      C1050   1.212       .  T
C1051      C1052   1.211       .  T
C1057      C1065   1.445       .  S
C1057      C1058   1.400       .  A
C1057      C1062   1.404       .  A
C1058      C1059   1.400       .  A
C1058      H1067   1.083       .  S
C1059      C1060   1.404       .  A
C1059      H1068   1.084       .  S
C1060      C1063   1.445       .  S
C1060      C1061   1.401       .  A
C1061      C1062   1.402       .  A
C1061      H1069   1.083       .  S
C1062      H1070   1.083       .  S
C1063      C1064   1.209       .  T
C1065      C1066   1.209       .  T
C1071      C1079   1.451       .  S
C1071      C1072   1.402       .  A
C1071      C1076   1.405       .  A
C1072      C1073   1.403       .  A
C1072      H1081   1.083       .  S
C1073      C1074   1.404       .  A
C1073      H1082   1.083       .  S
C1074      C1077   1.450       .  S
C1074      C1075   1.403       .  A
C1075      C1076   1.404       .  A
C1075      H1083   1.083       .  S
C1076      H1084   1.083       .  S
C1077      C1078   1.212       .  T
C1079      C1080   1.212       .  T
C1085      C1093   1.449       .  S
C1085      C1086   1.401       .  A
C1085      C1090   1.406       .  A
C1086      C1087   1.403       .  A
C1086      H1095   1.083       .  S
C1087      C1088   1.405       .  A
C1087      H1096   1.084       .  S
C1088      C1091   1.450       .  S
C1088      C1089   1.401       .  A
C1089      C1090   1.403       .  A
C1089      H1097   1.083       .  S
C1090      H1098   1.083       .  S
C1091      C1092   1.211       .  T
C1093      C1094   1.211       .  T
C1099      C1107   1.446       .  S
C1099      C1100   1.400       .  A
C1099      C1104   1.404       .  A
C1100      C1101   1.400       .  A
C1100      H1109   1.083       .  S
C1101      C1102   1.404       .  A
C1101      H1110   1.084       .  S
C1102      C1105   1.445       .  S
C1102      C1103   1.401       .  A
C1103      C1104   1.403       .  A
C1103      H1111   1.083       .  S
C1104      H1112   1.083       .  S
C1105      C1106   1.208       .  T
C1107      C1108   1.209       .  T
C1113      C1121   1.457       .  S
C1113      C1114   1.402       .  A
C1113      C1118   1.408       .  A
C1114      C1115   1.406       .  A
C1114      H1123   1.083       .  S
C1115      C1116   1.406       .  A
C1115      H1124   1.083       .  S
C1116      C1119   1.452       .  S
C1116      C1117   1.399       .  A
C1117      C1118   1.402       .  A
C1117      H1125   1.083       .  S
C1118      H1126   1.082       .  S
C1119      C1120   1.212       .  T
C1121      C1122   1.216       .  T
C1127      C1135   1.459       .  S
C1127      C1128   1.408       .  A
C1127      C1132   1.402       .  A
C1128      C1129   1.406       .  A
C1128      H1137   1.083       .  S
C1129      C1130   1.402       .  A
C1129      H1138   1.083       .  S
C1130      C1133   1.457       .  S
C1130      C1131   1.406       .  A
C1131      C1132   1.406       .  A
C1131      H1139   1.083       .  S
C1132      H1140   1.083       .  S
C1133      C1134   1.215       .  T
C1135      C1136   1.217       .  T
C1141      C1149   1.448       .  S
C1141      C1142   1.402       .  A
C1141      C1146   1.404       .  A
C1142      C1143   1.399       .  A
C1142      H1151   1.083       .  S
C1143      C1144   1.401       .  A
C1143      H1152   1.084       .  S
C1144      C1147   1.447       .  S
C1144      C1145   1.404       .  A
C1145      C1146   1.405       .  A
C1145      H1153   1.083       .  S
C1146      H1154   1.083       .  S
C1147      C1148   1.210       .  T
C1149      C1150   1.210       .  T
C1155      C1163   1.450       .  S
C1155      C1156   1.406       .  A
C1155      C1160   1.401       .  A
C1156      C1157   1.400       .  A
C1156      H1165   1.083   1_455  S
C1157      C1158   1.400       .  A
C1157      H1166   1.083   1_455  S
C1158      C1161   1.449       .  S
C1158      C1159   1.405       .  A
C1159      C1160   1.405       .  A
C1159      H1167   1.083       .  S
C1160      H1168   1.083       .  S
C1161      C1162   1.211       .  T
C1163      C1164   1.212       .  T
C1169      C1177   1.450       .  S
C1169      C1170   1.402       .  A
C1169      C1174   1.405       .  A
C1170      C1171   1.403       .  A
C1170      H1179   1.083       .  S
C1171      C1172   1.404       .  A
C1171      H1180   1.083       .  S
C1172      C1175   1.449       .  S
C1172      C1173   1.402       .  A
C1173      C1174   1.403       .  A
C1173      H1181   1.083       .  S
C1174      H1182   1.084       .  S
C1175      C1176   1.211       .  T
C1177      C1178   1.212       .  T
C1183      C1191   1.450       .  S
C1183      C1184   1.405       .  A
C1183      C1188   1.401       .  A
C1184      C1185   1.406       .  A
C1184      H1193   1.083       .  S
C1185      C1186   1.403       .  A
C1185      H1194   1.083       .  S
C1186      C1189   1.448       .  S
C1186      C1187   1.403       .  A
C1187      C1188   1.399       .  A
C1187      H1195   1.084       .  S
C1188      H1196   1.083       .  S
C1189      C1190   1.210       .  T
C1191      C1192   1.212       .  T
C1197      C1205   1.454       .  S
C1197      C1198   1.404       .  A
C1197      C1202   1.404       .  A
C1198      C1199   1.405       .  A
C1198      H1207   1.083       .  S
C1199      C1200   1.404       .  A
C1199      H1208   1.083       .  S
C1200      C1203   1.453       .  S
C1200      C1201   1.404       .  A
C1201      C1202   1.404       .  A
C1201      H1209   1.083       .  S
C1202      H1210   1.083       .  S
C1203      C1204   1.214       .  T
C1205      C1206   1.214       .  T
C1211      C1219   1.450       .  S
C1211      C1212   1.400       .  A
C1211      C1216   1.407       .  A
C1212      C1213   1.402       .  A
C1212      H1221   1.083       .  S
C1213      C1214   1.405       .  A
C1213      H1222   1.083       .  S
C1214      C1217   1.452       .  S
C1214      C1215   1.402       .  A
C1215      C1216   1.404       .  A
C1215      H1223   1.083       .  S
C1216      H1224   1.083       .  S
C1217      C1218   1.213       .  T
C1219      C1220   1.211       .  T
C1225      C1233   1.444       .  S
C1225      C1226   1.404       .  A
C1225      C1230   1.401       .  A
C1226      C1227   1.402       .  A
C1226      H1235   1.084       .  S
C1227      C1228   1.402       .  A
C1227      H1236   1.083       .  S
C1228      C1231   1.447       .  S
C1228      C1229   1.403       .  A
C1229      C1230   1.401       .  A
C1229      H1237   1.083       .  S
C1230      H1238   1.083       .  S
C1231      C1232   1.210       .  T
C1233      C1234   1.208       .  T
C1239      C1247   1.450       .  S
C1239      C1240   1.403       .  A
C1239      C1244   1.404       .  A
C1240      C1241   1.402       .  A
C1240      H1249   1.083       .  S
C1241      C1242   1.403       .  A
C1241      H1250   1.083       .  S
C1242      C1245   1.451       .  S
C1242      C1243   1.403       .  A
C1243      C1244   1.404       .  A
C1243      H1251   1.083       .  S
C1244      H1252   1.083       .  S
C1245      C1246   1.212       .  T
C1247      C1248   1.212       .  T
C1253      C1261   1.453       .  S
C1253      C1254   1.402       .  A
C1253      C1258   1.406       .  A
C1254      C1255   1.404       .  A
C1254      H1263   1.083       .  S
C1255      C1256   1.406       .  A
C1255      H1264   1.084       .  S
C1256      C1259   1.449       .  S
C1256      C1257   1.399       .  A
C1257      C1258   1.402       .  A
C1257      H1265   1.083   1_455  S
C1258      H1266   1.082   1_455  S
C1259      C1260   1.211       .  T
C1261      C1262   1.214       .  T
