geometry optimzed in LAMMPS
_audit_creation_date              2020-12-01 
_audit_creation_method            'lammps2cif' 
_symmetry_space_group_name_H-M    'P1' 
_symmetry_Int_Tables_number       1 
_symmetry_cell_setting            triclinic 
loop_ 
_symmetry_equiv_pos_as_xyz 
  x,y,z 
_cell_length_a                    47.91216341 
_cell_length_b                    47.68764662769227 
_cell_length_c                    24.073518067431436 
_cell_angle_alpha                 90.96585441183356 
_cell_angle_beta                  89.72770993323782 
_cell_angle_gamma                 89.7634363517023 
loop_ 
_atom_site_label 
_atom_site_type_symbol 
_atom_site_fract_x 
_atom_site_fract_y 
_atom_site_fract_z 
_atom_site_charge 
C1          C  0.10589273  0.11323195  0.21603418     0.30400
C2          C  0.13906024  0.14541342  0.28126768     0.30400
C3          C  0.13490315  0.12013166  0.19195843    -0.05800
C4          C  0.09366097  0.14286484  0.23150308    -0.06600
C5          C  0.11186344  0.10156251  0.27489492    -0.06500
C6          C  0.15154745  0.13661634  0.22503823    -0.05800
C7          C  0.11066050  0.15937938  0.26556022    -0.06600
C8          C  0.12879589  0.11822642  0.30768461    -0.06500
C9          C  0.17546599  0.14262587  0.19494425    -0.31900
N10         N  0.17429704  0.12925483  0.14467004     0.14600
C11         C  0.14936620  0.11552412  0.14242156    -0.31900
H12         H  0.14206662  0.10336628  0.10705593     0.16600
C13         C  0.09456164  0.18260457  0.28218338    -0.30800
N14         N  0.06937645  0.18176291  0.25666286     0.13400
C15         C  0.06814812  0.15701934  0.22794719    -0.30800
C16         C  0.13109667  0.10582704  0.35910139    -0.31100
N17         N  0.11689025  0.08127374  0.35842345     0.13900
H18         H  0.14325735  0.11358385  0.39383864     0.16500
C19         C  0.10454293  0.07876683  0.30739115    -0.31100
H20         H  0.09156222  0.06135168  0.29448214     0.16500
H21         H  0.04933804  0.14965634  0.20808486     0.16500
H22         H  0.19235498  0.15609725  0.20839643     0.16600
H23         H  0.09967618  0.19853661  0.31282617     0.16500
N24         N  0.49687130  0.21134826  0.25194700    -0.36200
N25         N  0.03949943  0.25501833  0.26064099    -0.56800
N26         N  0.49555205  0.29819020  0.24756942    -0.36200
N27         N  0.45283623  0.25460699  0.24930864    -0.56800
C28         C  0.01959274  0.19615827  0.26700596     0.27400
C29         C  0.47384825  0.19597076  0.26378266     0.27400
C30         C  0.01773479  0.31387994  0.26432355     0.27400
C31         C  0.47198060  0.31375037  0.25642629     0.27400
C32         C  0.05582806  0.23217045  0.24961455     0.36000
C33         C  0.05519067  0.27798325  0.24971873     0.36000
C34         C  0.43775569  0.23115265  0.23779245     0.36000
C35         C  0.43709252  0.27687814  0.23354820     0.36000
C36         C  0.01089675  0.17099981  0.28905808    -0.21500
C37         C  0.48211188  0.17090551  0.28718690    -0.21500
C38         C  0.00802793  0.33953900  0.28457650    -0.21500
C39         C  0.47932975  0.33947105  0.27955000    -0.21500
C40         C  0.08181445  0.24075657  0.23114533    -0.22600
C41         C  0.08141341  0.26962120  0.23124921    -0.22600
C42         C  0.41253105  0.23858944  0.21420734    -0.22600
C43         C  0.41215683  0.26739853  0.21133428    -0.22600
C44         C  0.04795589  0.20372431  0.25821946    -0.17900
C45         C  0.44574336  0.20319968  0.25087251    -0.17900
C46         C  0.44415407  0.30566327  0.24239120    -0.17900
C47         C  0.04656137  0.30638353  0.25841808    -0.17900
H48         H  0.02392608  0.15440428  0.30497066     0.15000
H49         H  0.46883050  0.15417131  0.30141637     0.15000
H50         H  0.02029492  0.35662069  0.30152913     0.15000
H51         H  0.46549810  0.35641512  0.29219504     0.15000
H52         H  0.09923118  0.22769340  0.21809634     0.13300
H53         H  0.09843179  0.28283875  0.21815577     0.13300
H54         H  0.39613711  0.22472652  0.19996685     0.13300
H55         H  0.39540102  0.27986412  0.19446424     0.13300
H56         H  0.49720776  0.22974057  0.22934277     0.26500
H57         H  0.49669384  0.27911013  0.22610312     0.26500
C58         C  0.35271791  0.36254782  0.27183046     0.30400
C59         C  0.38594205  0.39625680  0.21123160     0.30400
C60         C  0.34111487  0.37011001  0.21352669    -0.05800
C61         C  0.35901327  0.39147028  0.29844421    -0.06600
C62         C  0.38160534  0.35015086  0.25633306    -0.06500
C63         C  0.35738890  0.38849647  0.18329360    -0.05800
C64         C  0.37570910  0.40879204  0.26737794    -0.06600
C65         C  0.39859336  0.36738186  0.22594252    -0.06500
C66         C  0.34115794  0.39593371  0.13740794    -0.31900
N67         N  0.31705914  0.38073330  0.13668990     0.14600
C68         C  0.31750332  0.36422164  0.18180706    -0.31900
H69         H  0.30160591  0.34878669  0.18986241     0.16600
C70         C  0.37815959  0.43387990  0.29711624    -0.30800
N71         N  0.36394476  0.43205356  0.34611668     0.13400
C72         C  0.35179109  0.40620055  0.34669909    -0.30800
C73         C  0.42351862  0.35283439  0.21643428    -0.31100
N74         N  0.42209268  0.32708112  0.24033852     0.13900
H75         H  0.44140191  0.36054813  0.19380142     0.16500
C76         C  0.39622789  0.32526090  0.26383028    -0.31100
H77         H  0.38860661  0.30702516  0.28509817     0.16500
H78         H  0.33881531  0.39851120  0.38001941     0.16500
H79         H  0.34600401  0.41172030  0.10716799     0.16600
H80         H  0.38983092  0.45206553  0.28437393     0.16500
N81         N  0.11990388  0.00899121  0.41593325    -0.36200
N82         N  0.12485857  0.46539525  0.50017470    -0.56800
N83         N  0.11964310  0.00873785  0.58804350    -0.36200
N84         N  0.12027071  0.05254148  0.50332082    -0.56800
C85         C  0.12818940  0.48649520  0.38459688     0.27400
C86         C  0.12531514  0.03225638  0.38618916     0.27400
C87         C  0.12641429  0.48575073  0.61808294     0.27400
C88         C  0.12509855  0.03191029  0.61990893     0.27400
C89         C  0.11864029  0.44994643  0.45392056     0.36000
C90         C  0.11812219  0.44945563  0.54453730     0.36000
C91         C  0.11379531  0.06836836  0.45858774     0.36000
C92         C  0.11484618  0.06851748  0.54951289     0.36000
C93         C  0.13929663  0.49556746  0.33487901    -0.21500
C94         C  0.13765528  0.02443295  0.33605198    -0.21500
C95         C  0.13637560  0.49448411  0.66946718    -0.21500
C96         C  0.13556449  0.02344640  0.67060819    -0.21500
C97         C  0.10743276  0.42452347  0.46904806    -0.22600
C98         C  0.10737308  0.42403026  0.52622693    -0.22600
C99         C  0.10416517  0.09440753  0.47660962    -0.22600
C100        C  0.10489160  0.09453239  0.53385912    -0.22600
C101        C  0.12405938  0.45800903  0.39821727    -0.17900
C102        C  0.11799395  0.06020570  0.40173829    -0.17900
C103        C  0.11970169  0.06041875  0.60558454    -0.17900
C104        C  0.12244205  0.45714652  0.60131357    -0.17900
H105        H  0.14770962  0.48273988  0.30122579     0.15000
H106        H  0.14498694  0.03810960  0.30379316     0.15000
H107        H  0.14364723  0.48141138  0.70277764     0.15000
H108        H  0.14213479  0.03671093  0.70498343     0.15000
H109        H  0.09927263  0.40840801  0.44164532     0.13300
H110        H  0.09956744  0.40715015  0.55135846     0.13300
H111        H  0.09719726  0.11157336  0.45126605     0.13300
H112        H  0.09845645  0.11178854  0.56078242     0.13300
H113        H  0.10836017  0.00834312  0.45253099     0.26500
H114        H  0.10931254  0.00851523  0.55025546     0.26500
N115        N  0.36479745  0.00475603  0.40885367    -0.36200
N116        N  0.36478636  0.46111848  0.49255564    -0.56800
N117        N  0.37088341  0.00501378  0.58037782    -0.36200
N118        N  0.36547653  0.04873594  0.49683179    -0.56800
C119        C  0.35800371  0.48182411  0.37743778     0.27400
C120        C  0.35812291  0.02789175  0.37944001     0.27400
C121        C  0.36462152  0.48190134  0.61029690     0.27400
C122        C  0.36538457  0.02803501  0.61297146     0.27400
C123        C  0.36932006  0.44508237  0.44613783     0.36000
C124        C  0.37203734  0.44521071  0.53651093     0.36000
C125        C  0.37004452  0.06448201  0.45100057     0.36000
C126        C  0.37305793  0.06458837  0.54189457     0.36000
C127        C  0.34655002  0.49056699  0.32786292    -0.21500
C128        C  0.34661569  0.01951940  0.32912719    -0.21500
C129        C  0.35471940  0.49045519  0.66215577    -0.21500
C130        C  0.35521830  0.01938158  0.66382607    -0.21500
C131        C  0.37960377  0.41906326  0.46088877    -0.22600
C132        C  0.38129012  0.41914973  0.51788668    -0.22600
C133        C  0.38067561  0.09032255  0.46722291    -0.22600
C134        C  0.38259070  0.09037595  0.52433843    -0.22600
C135        C  0.36351591  0.45328404  0.39072534    -0.17900
C136        C  0.36406202  0.05626293  0.39480452    -0.17900
C137        C  0.37027167  0.05657324  0.59876365    -0.17900
C138        C  0.36903906  0.45330087  0.59335540    -0.17900
H139        H  0.33902748  0.47746318  0.29403866     0.15000
H140        H  0.33919612  0.03288551  0.29640045     0.15000
H141        H  0.34757856  0.47728447  0.69545305     0.15000
H142        H  0.34846352  0.03248145  0.69850617     0.15000
H143        H  0.38578960  0.40186519  0.43362005     0.13300
H144        H  0.38889753  0.40202958  0.54263240     0.13300
H145        H  0.38691386  0.10733038  0.44078965     0.13300
H146        H  0.39055991  0.10741467  0.54980927     0.13300
H147        H  0.37635030  0.00466183  0.44548609     0.26500
H148        H  0.38100509  0.00496243  0.54190244     0.26500
C149        C  0.10380747  0.39706770  0.77393455     0.30400
C150        C  0.13685719  0.36459557  0.70735686     0.30400
C151        C  0.13087763  0.38601680  0.80189228    -0.05800
C152        C  0.09050456  0.36922193  0.75371889    -0.06600
C153        C  0.11375660  0.41068756  0.72012228    -0.06500
C154        C  0.14798954  0.36954815  0.76781556    -0.05800
C155        C  0.10713066  0.35232813  0.71951813    -0.06600
C156        C  0.13041925  0.39432999  0.68637867    -0.06500
C157        C  0.17116577  0.36235857  0.79989999    -0.31900
N158        N  0.16888872  0.37425098  0.85198241     0.14600
C159        C  0.14373448  0.38775361  0.85372134    -0.31900
H160        H  0.13560421  0.39866859  0.89000170     0.16600
C161        C  0.09235156  0.32718185  0.71252746    -0.30800
N162        N  0.06724834  0.32903109  0.73961486     0.13400
C163        C  0.06654881  0.35428488  0.76633985    -0.30800
C164        C  0.13597111  0.40979626  0.63907573    -0.31100
N165        N  0.12279776  0.43520867  0.64321666     0.13900
H166        H  0.14840244  0.40280695  0.60378830     0.16500
C167        C  0.10905666  0.43576033  0.69297134    -0.31100
H168        H  0.09596603  0.45287172  0.70787167     0.16500
H169        H  0.05006293  0.36083577  0.79462089     0.16500
H170        H  0.18879249  0.34986797  0.78577578     0.16600
H171        H  0.09960746  0.30838729  0.69116090     0.16500
N172        N  0.03654026  0.25678402  0.74808522    -0.36200
N173        N  0.49395523  0.30093987  0.74468286    -0.56800
N174        N  0.45026934  0.25792651  0.74677196    -0.36200
N175        N  0.49297161  0.21409838  0.76004991    -0.56800
C176        C  0.05231014  0.28003431  0.75703149     0.27400
C177        C  0.05139163  0.23433085  0.76578542     0.27400
C178        C  0.43520838  0.28171971  0.75725934     0.27400
C179        C  0.43483801  0.23572123  0.76386845     0.27400
C180        C  0.01701843  0.31594089  0.73101020     0.36000
C181        C  0.47131026  0.31678124  0.73155210     0.36000
C182        C  0.01561896  0.19770731  0.74918048     0.36000
C183        C  0.47028218  0.19829418  0.74781468     0.36000
C184        C  0.07730635  0.27229051  0.78119901    -0.21500
C185        C  0.07667863  0.24355677  0.78694067    -0.21500
C186        C  0.41014918  0.27446074  0.78207068    -0.21500
C187        C  0.40984761  0.24558191  0.78598039    -0.21500
C188        C  0.00889150  0.34127954  0.70866549    -0.22600
C189        C  0.48009362  0.34179485  0.70896907    -0.22600
C190        C  0.00731174  0.17165073  0.72942528    -0.22600
C191        C  0.47865470  0.17203894  0.72835984    -0.22600
C192        C  0.04525252  0.30786347  0.74170636    -0.17900
C193        C  0.04364842  0.20561801  0.75905228    -0.17900
C194        C  0.44216333  0.20676783  0.75707409    -0.17900
C195        C  0.44291972  0.30965375  0.74281144    -0.17900
H196        H  0.09425500  0.28590473  0.79365072     0.15000
H197        H  0.09308713  0.23090635  0.80457010     0.15000
H198        H  0.39388665  0.28854124  0.79672711     0.15000
H199        H  0.39317275  0.23328852  0.80360076     0.15000
H200        H  0.02227852  0.35775102  0.69364122     0.13300
H201        H  0.46715246  0.35870027  0.69408755     0.13300
H202        H  0.02045830  0.15427095  0.71618429     0.13300
H203        H  0.46560846  0.15496310  0.71402886     0.13300
H204        H  0.01804869  0.25592145  0.72552081     0.26500
H205        H  0.46880025  0.25664843  0.72398595     0.26500
C206        C  0.35376606  0.14667759  0.71706076     0.30400
C207        C  0.38696297  0.11501405  0.78158204     0.30400
C208        C  0.36331895  0.11834594  0.69115201    -0.05800
C209        C  0.38178194  0.16081219  0.73456021    -0.06600
C210        C  0.34124749  0.13928744  0.77420045    -0.06500
C211        C  0.37974646  0.10166789  0.72401989    -0.05800
C212        C  0.39854537  0.14421567  0.76753693    -0.06600
C213        C  0.35741447  0.12181146  0.80575658    -0.06500
C214        C  0.38407768  0.07670437  0.69368739    -0.31900
N215        N  0.37117187  0.07820497  0.64307201     0.14600
C216        C  0.35835964  0.10373066  0.64184097    -0.31900
H217        H  0.34559628  0.11099304  0.60796824     0.16600
C218        C  0.42198593  0.15962756  0.78167828    -0.30800
N219        N  0.42041080  0.18533228  0.75799031     0.13400
C220        C  0.39561709  0.18651544  0.73080149    -0.30800
C221        C  0.34143253  0.11535475  0.85235572    -0.31100
N222        N  0.31759412  0.13072719  0.85285496     0.13900
H223        H  0.34636482  0.10034042  0.88403037     0.16500
C224        C  0.31706169  0.14527380  0.80459808    -0.31100
H225        H  0.30029799  0.15909685  0.79233819     0.16500
H226        H  0.38848732  0.20533453  0.71108969     0.16500
H227        H  0.39557618  0.05862718  0.70776048     0.16600
H228        H  0.43908780  0.15247376  0.80709064     0.16500
N229        N  0.24309342  0.37849428  0.08213611    -0.36200
N230        N  0.28603305  0.38268065  0.99424271    -0.56800
N231        N  0.24219233  0.37738149  0.90969385    -0.36200
N232        N  0.19874991  0.37886019  0.99761472    -0.56800
C233        C  0.26642372  0.38469964  0.11236195     0.27400
C234        C  0.22025289  0.38434368  0.11471514     0.27400
C235        C  0.26447529  0.38596609  0.87872217     0.27400
C236        C  0.21857602  0.38229826  0.87984271     0.27400
C237        C  0.30257465  0.37715143  0.03833668     0.36000
C238        C  0.30197671  0.37826981  0.94813923     0.36000
C239        C  0.18311495  0.37416380  0.04408156     0.36000
C240        C  0.18285988  0.37172169  0.95266698     0.36000
C241        C  0.25827568  0.39443417  0.16450120    -0.21500
C242        C  0.22941705  0.39443996  0.16584699    -0.21500
C243        C  0.25478274  0.39658222  0.82917570    -0.21500
C244        C  0.22604158  0.39445165  0.83007833    -0.21500
C245        C  0.32886873  0.36892253  0.02007759    -0.22600
C246        C  0.32848736  0.36960382  0.96310123    -0.22600
C247        C  0.15731367  0.36378701  0.02831458    -0.22600
C248        C  0.15718957  0.36215210  0.97096475    -0.22600
C249        C  0.29493654  0.38097509  0.09497739    -0.17900
C250        C  0.19143946  0.37972637  0.10050730    -0.17900
C251        C  0.19052140  0.37538856  0.89543211    -0.17900
C252        C  0.29340264  0.38335885  0.89286185    -0.17900
H253        H  0.27173185  0.40122322  0.19806453     0.15000
H254        H  0.21670911  0.40139602  0.20071934     0.15000
H255        H  0.26709238  0.40538242  0.79599387     0.15000
H256        H  0.21216249  0.40180973  0.79820837     0.15000
H257        H  0.34653750  0.36286909  0.04506196     0.13300
H258        H  0.34576982  0.36402244  0.93597525     0.13300
H259        H  0.14041713  0.35750989  0.05526973     0.13300
H260        H  0.14008631  0.35458419  0.94574561     0.13300
H261        H  0.24292320  0.36863461  0.04403977     0.26500
H262        H  0.24314563  0.36651149  0.94614793     0.26500
N263        N  0.24706405  0.13118512  0.08569253    -0.36200
N264        N  0.20325095  0.13140224  0.00011250    -0.56800
N265        N  0.24591617  0.13411253  0.91401674    -0.36200
N266        N  0.28983728  0.12853174  0.99914184    -0.56800
C267        C  0.22397383  0.12416521  0.11540432     0.27400
C268        C  0.26986624  0.12340066  0.11543409     0.27400
C269        C  0.22290503  0.12783686  0.88359566     0.27400
C270        C  0.26846418  0.12648540  0.88300011     0.27400
C271        C  0.18758120  0.13653555  0.04624750     0.36000
C272        C  0.18722209  0.13816860  0.95593223     0.36000
C273        C  0.30621259  0.13319938  0.04441482     0.36000
C274        C  0.30538578  0.13478505  0.95361151     0.36000
C275        C  0.23226981  0.11150288  0.16401049    -0.21500
C276        C  0.26108651  0.11122636  0.16430151    -0.21500
C277        C  0.23097133  0.11589366  0.83315592    -0.21500
C278        C  0.25970641  0.11491977  0.83299177    -0.21500
C279        C  0.16167141  0.14691452  0.03128640    -0.22600
C280        C  0.16145229  0.14796683  0.97419343    -0.22600
C281        C  0.33208629  0.14271051  0.02742399    -0.22600
C282        C  0.33163353  0.14358314  0.97018631    -0.22600
C283        C  0.19565240  0.13011350  0.10131829    -0.17900
C284        C  0.29837699  0.12796540  0.10062842    -0.17900
C285        C  0.29675041  0.13108344  0.89722782    -0.17900
C286        C  0.19487729  0.13355445  0.89938254    -0.17900
H287        H  0.21892220  0.10276289  0.19548500     0.15000
H288        H  0.27408047  0.10257871  0.19648121     0.15000
H289        H  0.21757784  0.10825791  0.80019939     0.15000
H290        H  0.27273683  0.10610057  0.80035875     0.15000
H291        H  0.14463296  0.15310515  0.05854146     0.13300
H292        H  0.14422417  0.15510876  0.94913161     0.13300
H293        H  0.34933399  0.14895316  0.05351690     0.13300
H294        H  0.34864145  0.15026962  0.94389148     0.13300
H295        H  0.24724152  0.14312731  0.04994288     0.26500
H296        H  0.24635131  0.14552756  0.95125158     0.26500
C297        C  0.38367567  0.40035393  0.77672292     0.30400
C298        C  0.35098865  0.36558809  0.71531650     0.30400
C299        C  0.35503448  0.39305829  0.80281730    -0.05800
C300        C  0.37594510  0.41119704  0.71819219    -0.06600
C301        C  0.39698946  0.37135771  0.76088075    -0.06500
C302        C  0.33875048  0.37538371  0.77122426    -0.05800
C303        C  0.35891312  0.39374984  0.68663847    -0.06600
C304        C  0.38018451  0.35367081  0.72949059    -0.06500
C305        C  0.31418499  0.37066862  0.80008251    -0.31900
N306        N  0.31474695  0.38504123  0.84923885     0.14600
C307        C  0.33971992  0.39901625  0.85109443    -0.31900
H308        H  0.34652874  0.41219994  0.88541721     0.16600
C309        C  0.35583094  0.40687933  0.63533343    -0.30800
N310        N  0.36972384  0.43171808  0.63576781     0.13400
C311        C  0.38326689  0.43363761  0.68491078    -0.30800
C312        C  0.39562410  0.32948088  0.71771325    -0.31100
N313        N  0.42130379  0.33157004  0.74172076     0.13900
H314        H  0.38859416  0.31156845  0.69348012     0.16500
C315        C  0.42245751  0.35743700  0.76686332    -0.31100
H316        H  0.44065356  0.36557374  0.78789726     0.16500
H317        H  0.39782543  0.45023436  0.69462848     0.16500
H318        H  0.29733896  0.35712308  0.78673794     0.16600
H319        H  0.34492896  0.39898383  0.59921869     0.16500
C320        C  0.38855191  0.11282594  0.21767001     0.30400
C321        C  0.35524300  0.14727426  0.28020771     0.30400
C322        C  0.37866168  0.10051419  0.27440109    -0.05800
C323        C  0.40118322  0.14132356  0.23478825    -0.06600
C324        C  0.35997824  0.12056196  0.19092786    -0.06500
C325        C  0.36158794  0.11821865  0.30618482    -0.05800
C326        C  0.38427642  0.15868446  0.26628069    -0.06600
C327        C  0.34297483  0.13807237  0.22315836    -0.06500
C328        C  0.35299042  0.10309969  0.35237552    -0.31900
N329        N  0.36516699  0.07730226  0.35119971     0.14600
C330        C  0.37980588  0.07513152  0.30269817    -0.31900
H331        H  0.38987520  0.05591925  0.28893464     0.16600
C332        C  0.39895585  0.18320009  0.27669087    -0.30800
N333        N  0.42444729  0.18137248  0.25151045     0.13400
C334        C  0.42597639  0.15565275  0.22595364    -0.30800
C335        C  0.31820442  0.14160015  0.19408719    -0.31100
N336        N  0.31976123  0.12764277  0.14421104     0.13900
H337        H  0.30024006  0.15356666  0.20823605     0.16500
C338        C  0.34508178  0.11424971  0.14258064    -0.31100
H339        H  0.35214352  0.10072977  0.10877124     0.16500
H340        H  0.44363262  0.14808321  0.20173780     0.16500
H341        H  0.33848186  0.10997978  0.38439131     0.16600
H342        H  0.39146450  0.20120341  0.30043555     0.16500
C343        C  0.13444842  0.15106263  0.72567197     0.30400
C344        C  0.10439650  0.11653111  0.79071998     0.30400
C345        C  0.14874175  0.14232754  0.78000347    -0.05800
C346        C  0.10563394  0.16196146  0.74364081    -0.06600
C347        C  0.12755741  0.12199154  0.69835529    -0.06500
C348        C  0.13314474  0.12509495  0.81296713    -0.05800
C349        C  0.08990828  0.14469372  0.77675549    -0.06600
C350        C  0.11127324  0.10466218  0.73117916    -0.06500
C351        C  0.14857769  0.11954784  0.85994794    -0.31900
N352        N  0.17331051  0.13327689  0.85694044     0.14600
C353        C  0.17383581  0.14685799  0.80751705    -0.31900
H354        H  0.19108727  0.15938083  0.79299446     0.16600
C355        C  0.06467181  0.15875542  0.78589157    -0.30800
N356        N  0.06529235  0.18404040  0.75979274     0.13400
C357        C  0.09020815  0.18571328  0.73314159    -0.30800
C358        C  0.10552493  0.08077114  0.69910246    -0.31100
N359        N  0.11943564  0.08197845  0.64970387     0.13900
H360        H  0.09214290  0.06359505  0.71073102     0.16500
C361        C  0.13334853  0.10685019  0.64945331    -0.31100
H362        H  0.14718410  0.11298352  0.61624030     0.16500
H363        H  0.09665722  0.20299355  0.70753124     0.16500
H364        H  0.14219422  0.10649633  0.89405957     0.16600
H365        H  0.04714941  0.15113649  0.80966657     0.16500
C366        C  0.13619786  0.36544176  0.28591607     0.30400
C367        C  0.10201867  0.39669822  0.22360152     0.30400
C368        C  0.14764345  0.37207942  0.22646358    -0.05800
C369        C  0.10726895  0.35274001  0.27474699    -0.06600
C370        C  0.13027678  0.39522116  0.30952055    -0.06500
C371        C  0.13021239  0.38853829  0.19443997    -0.05800
C372        C  0.09010734  0.36865803  0.24272530    -0.06600
C373        C  0.11255358  0.41122652  0.27810014    -0.06500
C374        C  0.14471875  0.39368063  0.14494812    -0.31900
N375        N  0.17007256  0.38023860  0.14509507     0.14600
C376        C  0.17193460  0.36732305  0.19522985    -0.31900
H377        H  0.18999043  0.35551993  0.20835360     0.16600
C378        C  0.06590469  0.35349347  0.23349012    -0.30800
N379        N  0.06763057  0.32855230  0.25999863     0.13400
C380        C  0.09301983  0.32805022  0.28575370    -0.30800
C381        C  0.10981254  0.43706289  0.30592071    -0.31100
N382        N  0.12464812  0.43667582  0.35396165     0.13900
H383        H  0.09760823  0.45488287  0.29283493     0.16500
C384        C  0.13825277  0.41164550  0.35504595    -0.31100
H385        H  0.15284778  0.40592142  0.38703048     0.16500
H386        H  0.10084573  0.31081437  0.30995334     0.16500
H387        H  0.13747241  0.40669725  0.11156755     0.16600
H388        H  0.04857525  0.35989341  0.20788396     0.16500
O389        O  0.01285175  0.04126621  0.08244184    -0.79800
O390        O  0.47225830  0.05152868  0.93793063    -0.79800
O391        O  0.05625601  0.01377094  0.94467028    -0.79800
O392        O  0.44381672  0.02128443  0.05423850    -0.79700
O393        O  0.02617571  0.04746372  0.94258868    -0.79900
O394        O  0.48425016  0.03775658  0.08732992    -0.79800
O395        O  0.43784097  0.02189328  0.94355203    -0.79800
O396        O  0.05035027  0.01890112  0.05408306    -0.79800
C397        C  0.03914279  0.03996678  0.07872174     1.09900
C398        C  0.44734315  0.04552883  0.92994503     1.09800
C399        C  0.05053729  0.03908664  0.93506424     1.10000
C400        C  0.45772087  0.03921451  0.08296009     1.09800
O401        O  0.47206376  0.48795718  0.11050300    -0.79800
O402        O  0.02361415  0.49370892  0.87897240    -0.79800
O403        O  0.02339482  0.46391530  0.05984819    -0.79800
O404        O  0.46557508  0.46748945  0.93536278    -0.79700
O405        O  0.46813015  0.49922037  0.87238229    -0.79800
O406        O  0.02124080  0.49253444  0.13326853    -0.79800
O407        O  0.46662636  0.46236810  0.03944507    -0.79700
O408        O  0.02393718  0.46221206  0.94481601    -0.79800
Co409      Co  0.50399104  0.00265820  0.06548893     1.51500
Co410      Co  0.49771730  0.02293366  0.91196045     1.51700
Co411      Co  0.03497302  0.99024091  0.99937277     1.51600
Co412      Co  0.45539663  0.99345773  0.99341041     1.51500
O413        O  0.49461321  0.00737938  0.98911256    -1.41700
C414        C  0.46149121  0.46650888  0.08922946     1.09900
C415        C  0.02866040  0.46902947  0.89560185     1.10000
C416        C  0.02766383  0.46872967  0.11180470     1.09900
C417        C  0.46031638  0.47504769  0.88745859     1.09900
O418        O  0.28365269  0.21750984  0.46858231    -0.79800
O419        O  0.28745987  0.28726792  0.54642573    -0.79800
O420        O  0.25977849  0.27664567  0.37116593    -0.79800
O421        O  0.27027878  0.23199985  0.58932043    -0.79700
O422        O  0.29004826  0.28403477  0.43717756    -0.79900
O423        O  0.26198215  0.19159810  0.55185526    -0.79800
O424        O  0.25477332  0.28395483  0.60852401    -0.79800
O425        O  0.26030561  0.22228128  0.39120957    -0.79800
C426        C  0.28243136  0.21515409  0.41652190     1.09900
C427        C  0.27862796  0.29226359  0.59438813     1.09800
C428        C  0.28358590  0.28512401  0.38698065     1.10000
C429        C  0.27436773  0.20571788  0.58698816     1.09800
O430        O  0.21323108  0.21478145  0.55535979    -0.79800
O431        O  0.23721330  0.31380684  0.42829758    -0.79800
O432        O  0.20496513  0.22815872  0.44707706    -0.79800
O433        O  0.20404143  0.27771688  0.54789460    -0.79700
O434        O  0.23212101  0.31382659  0.53902258    -0.79800
O435        O  0.23021791  0.19180111  0.45051557    -0.79800
O436        O  0.21861465  0.24255858  0.62955538    -0.79700
O437        O  0.20587487  0.28096170  0.42939783    -0.79800
Co438      Co  0.24692662  0.21735911  0.50255948     1.51500
Co439      Co  0.26198744  0.29803341  0.48819023     1.51700
Co440      Co  0.23274432  0.25224385  0.41320681     1.51600
Co441      Co  0.23612780  0.25385902  0.56449582     1.51500
O442        O  0.24879503  0.25864830  0.48866461    -1.41700
C443        C  0.20589235  0.22286984  0.60459472     1.09900
C444        C  0.21314915  0.30478292  0.41597856     1.10000
C445        C  0.20819886  0.20289212  0.43518397     1.09900
C446        C  0.20857839  0.30367155  0.55297790     1.09900
C447        C  0.05413418  0.42504529  0.11243999    -0.19900
C448        C  0.04110602  0.44685418  0.14318078    -0.06500
C449        C  0.04329788  0.44773543  0.20132938     0.14400
C450        C  0.06107511  0.42866025  0.22571263    -0.20000
C451        C  0.07977827  0.41229939  0.19342032    -0.06500
C452        C  0.07289127  0.40700321  0.13730727     0.14400
C453        C  0.08281392  0.38200634  0.10322410    -0.23300
H454        H  0.05045070  0.42236934  0.06825962     0.15700
H455        H  0.06083493  0.42724175  0.27044098     0.15700
C456        C  0.02809406  0.46877364  0.23808773    -0.23300
H457        H  0.06440551  0.37048601  0.08691941     0.05900
H458        H  0.09491282  0.36664018  0.12717040     0.09100
H459        H  0.09541966  0.38912479  0.06736349     0.09100
H460        H  0.00541851  0.46797737  0.23008994     0.09100
H461        H  0.03600708  0.49020988  0.23051163     0.09100
H462        H  0.03130003  0.46459495  0.28287229     0.05900
C463        C  0.16905388  0.32584005  0.29628179    -0.19900
C464        C  0.15353884  0.34721053  0.32181185    -0.06500
C465        C  0.15282300  0.34853657  0.38063817     0.14400
C466        C  0.17539683  0.33773814  0.40921979    -0.20000
C467        C  0.19411819  0.31992573  0.38169956    -0.06500
C468        C  0.18847447  0.31096187  0.32636506     0.14400
C469        C  0.20075046  0.28526349  0.29819224    -0.23300
H470        H  0.16531431  0.32000237  0.25327768     0.15700
H471        H  0.17660825  0.34059039  0.45397057     0.15700
C472        C  0.12745962  0.35672624  0.41448819    -0.23300
H473        H  0.18364984  0.27059469  0.28701414     0.05900
H474        H  0.21132965  0.29121092  0.25908171     0.09100
H475        H  0.21550633  0.27377121  0.32441881     0.09100
H476        H  0.12015462  0.33818416  0.43767443     0.09100
H477        H  0.10972312  0.36374880  0.38884172     0.09100
H478        H  0.13307048  0.37313945  0.44552159     0.05900
C479        C  0.17840899  0.21429827  0.68834631    -0.19900
C480        C  0.18290896  0.20864345  0.63184664    -0.06500
C481        C  0.16611128  0.18858941  0.60389364     0.14400
C482        C  0.14911420  0.17151467  0.63541838    -0.20000
C483        C  0.14945227  0.17310008  0.69342346    -0.10100
C484        C  0.16080382  0.19753914  0.71929071     0.14400
C485        C  0.15461164  0.20756186  0.77803736    -0.23300
H486        H  0.18907199  0.23152607  0.70905819     0.15700
H487        H  0.13524686  0.15725041  0.61424852     0.15700
C488        C  0.16571351  0.18454533  0.54154909    -0.23300
H489        H  0.14586876  0.22915022  0.77687959     0.05900
H490        H  0.17418887  0.20821077  0.80250151     0.09100
H491        H  0.13920853  0.19476146  0.80037921     0.09100
H492        H  0.18567932  0.17508126  0.52703284     0.09100
H493        H  0.16188306  0.20494489  0.52130917     0.09100
H494        H  0.14897148  0.16998027  0.52785187     0.05900
C495        C  0.09780368  0.06850664  0.82680568    -0.19900
C496        C  0.09103029  0.09712369  0.83192553    -0.06500
C497        C  0.07870626  0.10652102  0.88286364     0.14400
C498        C  0.06673622  0.08674220  0.91767257    -0.20000
C499        C  0.06960544  0.05795412  0.90661163    -0.06500
C500        C  0.08672081  0.04877233  0.86234264     0.14400
C501        C  0.09273907  0.01841971  0.85050932    -0.23300
H502        H  0.11256142  0.06128520  0.79572367     0.15700
H503        H  0.05516038  0.09386045  0.95404506     0.15700
C504        C  0.07957632  0.13628394  0.90517783    -0.23300
H505        H  0.10663801  0.01544336  0.81380218     0.05900
H506        H  0.07301770  0.00735464  0.84113169     0.09100
H507        H  0.10328169  0.00932154  0.88698616     0.09100
H508        H  0.05813191  0.14513763  0.90739869     0.09100
H509        H  0.09323115  0.15027513  0.88127906     0.09100
H510        H  0.08830331  0.13630305  0.94785837     0.05900
C511        C  0.42477040  0.07462844  0.20695615    -0.19900
C512        C  0.40895217  0.09580314  0.18207572    -0.06500
C513        C  0.41543003  0.10251594  0.12610169     0.14400
C514        C  0.43209835  0.08390286  0.09456253    -0.20000
C515        C  0.44279019  0.05954387  0.11789705    -0.06500
C516        C  0.44027093  0.05544508  0.17534736     0.14400
C517        C  0.45342762  0.03072732  0.20360448    -0.23300
H518        H  0.42602749  0.07339436  0.25140181     0.15700
H519        H  0.43747825  0.08871533  0.05210189     0.15700
C520        C  0.40688347  0.12956233  0.09905549    -0.23300
H521        H  0.44972603  0.03133752  0.24919756     0.05900
H522        H  0.47632894  0.03052058  0.19642380     0.09100
H523        H  0.44407754  0.01106158  0.18720610     0.09100
H524        H  0.39641963  0.14475696  0.12729541     0.09100
H525        H  0.39242230  0.12513345  0.06450378     0.09100
H526        H  0.42568596  0.14016624  0.08250762     0.05900
C527        C  0.30708779  0.20739703  0.32806162    -0.19900
C528        C  0.30495684  0.20158505  0.38482948    -0.06500
C529        C  0.32314831  0.18174248  0.40836636     0.14400
C530        C  0.34081593  0.16647091  0.37325445    -0.20000
C531        C  0.33887931  0.16825195  0.31528750    -0.06500
C532        C  0.32501251  0.19194748  0.29332712     0.14400
C533        C  0.32983127  0.20310154  0.23576287    -0.23300
H534        H  0.29486695  0.22430927  0.31070863     0.15700
H535        H  0.35628031  0.15304928  0.39169419     0.15700
C536        C  0.32360679  0.17538126  0.46951427    -0.23300
H537        H  0.33678135  0.22525309  0.23920810     0.05900
H538        H  0.31010265  0.20256876  0.21179238     0.09100
H539        H  0.34631419  0.19176179  0.21216467     0.09100
H540        H  0.30271262  0.16828311  0.48335932     0.09100
H541        H  0.32999417  0.19430405  0.49326482     0.09100
H542        H  0.33870836  0.15844461  0.47930869     0.05900
C543        C  0.31402299  0.35645672  0.64528653    -0.19900
C544        C  0.33103368  0.34572915  0.68692981    -0.06500
C545        C  0.32544770  0.31812943  0.70615003     0.14400
C546        C  0.30703927  0.30118681  0.67614986    -0.20000
C547        C  0.29420582  0.31124873  0.62876109    -0.06500
C548        C  0.29757948  0.33922479  0.61279263     0.14400
C549        C  0.28397394  0.35151807  0.56215621    -0.23300
H550        H  0.31198437  0.37861960  0.63962995     0.15700
H551        H  0.30298746  0.27995245  0.68938252     0.15700
C552        C  0.33667504  0.30590449  0.75900358    -0.23300
H553        H  0.29095671  0.37335489  0.55497023     0.05900
H554        H  0.26117282  0.35239472  0.56781283     0.09100
H555        H  0.28946861  0.33910673  0.52426870     0.09100
H556        H  0.31893616  0.29949268  0.78574073     0.09100
H557        H  0.34929668  0.32054444  0.78428226     0.09100
H558        H  0.34938685  0.28699448  0.74872488     0.05900
C559        C  0.39974934  0.44914807  0.80218304    -0.19900
C560        C  0.40095452  0.42018943  0.81210080    -0.06500
C561        C  0.41848327  0.41088480  0.85487275     0.14400
C562        C  0.43949414  0.42866601  0.87357667    -0.20000
C563        C  0.44136160  0.45671357  0.85597144    -0.06500
C564        C  0.42052701  0.46732589  0.82096341     0.14400
C565        C  0.41911761  0.49769872  0.80494128    -0.23300
H566        H  0.38226580  0.45779294  0.77995310     0.15700
H567        H  0.45365716  0.42083355  0.90478538     0.15700
C568        C  0.41410015  0.38391506  0.88570474    -0.23300
H569        H  0.40146200  0.00190178  0.77645317     0.05900
H570        H  0.43863190  0.00368268  0.78320739     0.09100
H571        H  0.41602000  0.01100403  0.84261519     0.09100
H572        H  0.43308833  0.37055853  0.88293179     0.09100
H573        H  0.39590881  0.37179738  0.87070599     0.09100
H574        H  0.41012380  0.38893284  0.93025277     0.05900
C575        C  0.44256790  0.06594220  0.83881726    -0.19900
C576        C  0.43209516  0.06326556  0.89307514    -0.06500
C577        C  0.41075912  0.08079465  0.91246491     0.14400
C578        C  0.40066888  0.10089000  0.87709803    -0.20000
C579        C  0.40602644  0.09920890  0.81974537    -0.06500
C580        C  0.42992677  0.08410358  0.80158707     0.14400
C581        C  0.44408618  0.08813521  0.74622639    -0.23300
H582        H  0.46080908  0.05396222  0.82566785     0.15700
H583        H  0.38818084  0.11765646  0.89490264     0.15700
C584        C  0.39826079  0.07918877  0.96954864    -0.23300
H585        H  0.46599978  0.09476210  0.75326857     0.05900
H586        H  0.43423747  0.10459362  0.72102797     0.09100
H587        H  0.44434984  0.06806811  0.72219580     0.09100
H588        H  0.40163296  0.09947785  0.99101697     0.09100
H589        H  0.40719663  0.06204935  0.99442970     0.09100
H590        H  0.37545331  0.07551442  0.96625052     0.05900
C591        C  0.28735727  0.16516926  0.63987648    -0.19900
C592        C  0.29445884  0.19165791  0.62051501    -0.06500
C593        C  0.32164425  0.20177935  0.62543079     0.14400
C594        C  0.34109951  0.18542543  0.65247876    -0.20000
C595        C  0.33326753  0.16100228  0.68000373    -0.06500
C596        C  0.30631562  0.14947594  0.66968212     0.14400
C597        C  0.29629458  0.12083532  0.68727233    -0.23300
H598        H  0.26669393  0.15674728  0.63198418     0.15700
H599        H  0.36250923  0.19125787  0.64896642     0.15700
C600        C  0.33038607  0.22939087  0.60125230    -0.23300
H601        H  0.29119828  0.10804871  0.64972621     0.05900
H602        H  0.27696809  0.12338908  0.71237153     0.09100
H603        H  0.31126945  0.10849923  0.71155473     0.09100
H604        H  0.31865885  0.24662659  0.62212760     0.09100
H605        H  0.32601968  0.22985751  0.55613352     0.09100
H606        H  0.35295648  0.23351033  0.60743126     0.05900
C607        C  0.05631225  0.41750075  0.79042725    -0.19900
C608        C  0.08474648  0.41677917  0.80563082    -0.06500
C609        C  0.09466798  0.43796225  0.84228182     0.14400
C610        C  0.07531243  0.45250851  0.87493151    -0.20000
C611        C  0.04683389  0.45099145  0.86315599    -0.06500
C612        C  0.03713618  0.43422470  0.81930470     0.14400
C613        C  0.00676462  0.43345645  0.80403915    -0.23300
H614        H  0.04897624  0.40540655  0.75506691     0.15700
H615        H  0.08259031  0.46670143  0.90727992     0.15700
C616        C  0.12435425  0.44857814  0.84332888    -0.23300
H617        H  0.00279623  0.41906103  0.76820854     0.05900
H618        H  0.99950972  0.45477265  0.79294987     0.09100
H619        H  0.99462184  0.42589057  0.84000946     0.09100
H620        H  0.13806685  0.43869056  0.81156446     0.09100
H621        H  0.13345445  0.44627817  0.88530996     0.09100
H622        H  0.12451925  0.47110902  0.83344199     0.05900
C623        C  0.14376897  0.33133732  0.62561820    -0.19900
C624        C  0.15574330  0.34945835  0.66574567    -0.06500
C625        C  0.18423976  0.35689793  0.65858796     0.14400
C626        C  0.20057563  0.34162104  0.62084695    -0.20000
C627        C  0.18907753  0.32114513  0.58564744    -0.06500
C628        C  0.16005909  0.31668312  0.58635349     0.14400
C629        C  0.14602222  0.29714316  0.54531068    -0.23300
H630        H  0.12145694  0.32938341  0.62272176     0.15700
H631        H  0.22272891  0.34577066  0.61952154     0.15700
C632        C  0.19843815  0.38160157  0.68637883    -0.23300
H633        H  0.12292702  0.29805543  0.54924401     0.05900
H634        H  0.15248017  0.27515258  0.55255372     0.09100
H635        H  0.15160701  0.30299012  0.50227326     0.09100
H636        H  0.21575402  0.37399173  0.71270176     0.09100
H637        H  0.18447346  0.39522730  0.71148850     0.09100
H638        H  0.20746052  0.39524342  0.65399937     0.05900
C639        C  0.30612602  0.34358547  0.29719019    -0.19900
C640        C  0.33466277  0.34455945  0.30786628    -0.06500
C641        C  0.34525771  0.32821328  0.35140855     0.14400
C642        C  0.32907578  0.30622616  0.37069363    -0.20000
C643        C  0.30151593  0.30228042  0.35221156    -0.06500
C644        C  0.29002962  0.32129276  0.31420581     0.14400
C645        C  0.26095947  0.31909724  0.29172332    -0.23300
H646        H  0.29608022  0.36062153  0.27606115     0.15700
H647        H  0.33740736  0.29333841  0.40348067     0.15700
C648        C  0.37176778  0.33493613  0.38250407    -0.23300
H649        H  0.25658336  0.33508044  0.25978536     0.05900
H650        H  0.25841641  0.29817049  0.27166739     0.09100
H651        H  0.24571523  0.32249039  0.32558630     0.09100
H652        H  0.38272396  0.35355584  0.36663637     0.09100
H653        H  0.38621319  0.31668712  0.38093893     0.09100
H654        H  0.36653936  0.33951379  0.42673953     0.05900
C655        C  0.44691568  0.44458669  0.17580950    -0.19900
C656        C  0.44282951  0.44791513  0.11904478    -0.06500
C657        C  0.42173804  0.43253813  0.09133787     0.14400
C658        C  0.40460817  0.41521734  0.12221457    -0.20000
C659        C  0.40679145  0.41379513  0.18009638    -0.06500
C660        C  0.43035226  0.42639368  0.20624018     0.14400
C661        C  0.44025404  0.42023280  0.26434174    -0.23300
H662        H  0.46395089  0.45533071  0.19611673     0.15700
H663        H  0.39045810  0.40170180  0.09998365     0.15700
C664        C  0.41650226  0.43439035  0.02959947    -0.23300
H665        H  0.46214629  0.41250157  0.26227652     0.05900
H666        H  0.42818162  0.40391337  0.28564349     0.09100
H667        H  0.43977738  0.43973963  0.29017011     0.09100
H668        H  0.43455494  0.42562376  0.00598482     0.09100
H669        H  0.41286905  0.45656304  0.01813572     0.09100
H670        H  0.39781164  0.42227319  0.01659493     0.05900
C671        C  0.19759121  0.16134316  0.38155994    -0.19900
C672        C  0.18996678  0.18864258  0.39741333    -0.06500
C673        C  0.16842235  0.20290108  0.36986325     0.14400
C674        C  0.15549546  0.18924576  0.32640977    -0.20000
C675        C  0.15980129  0.16075363  0.31626536    -0.06500
C676        C  0.18333148  0.14721233  0.34006308     0.14400
C677        C  0.19532114  0.11922681  0.32051552    -0.23300
H678        H  0.21537742  0.15119786  0.40052323     0.15700
H679        H  0.14282951  0.20140605  0.29905563     0.15700
C680        C  0.15869848  0.23230484  0.38451357    -0.23300
H681        H  0.21368111  0.11290196  0.34547930     0.05900
H682        H  0.20289114  0.12090427  0.27748968     0.09100
H683        H  0.18042067  0.10177435  0.32276535     0.09100
H684        H  0.17528692  0.24751377  0.37492760     0.09100
H685        H  0.15284170  0.23374782  0.42916505     0.09100
H686        H  0.14002471  0.23848167  0.36032897     0.05900
C687        C  0.06881696  0.10547495  0.14334029    -0.19900
C688        C  0.08988401  0.09414974  0.17688932    -0.06500
C689        C  0.09736462  0.06550701  0.16831406     0.14400
C690        C  0.08019734  0.04856115  0.13570381    -0.20000
C691        C  0.05670437  0.05952612  0.10932527    -0.06500
C692        C  0.05109280  0.08838776  0.11214811     0.14400
C693        C  0.02701480  0.10134889  0.08150098    -0.23300
H694        H  0.06677853  0.12775433  0.13888572     0.15700
H695        H  0.08517316  0.02641063  0.13120084     0.15700
C696        C  0.12359709  0.05181285  0.18982848    -0.23300
H697        H  0.02692631  0.12458073  0.08565698     0.05900
H698        H  0.00695273  0.09372602  0.09868010     0.09100
H699        H  0.02831224  0.09572900  0.03669362     0.09100
H700        H  0.13578506  0.04302050  0.15420092     0.09100
H701        H  0.13775465  0.06610859  0.21244906     0.09100
H702        H  0.11788342  0.03432521  0.21746489     0.05900
C703        C  0.10589215  0.61323189  0.21603465     0.30400
C704        C  0.13905975  0.64541345  0.28126780     0.30400
C705        C  0.13490257  0.62013146  0.19195875    -0.05800
C706        C  0.09366050  0.64286484  0.23150313    -0.06600
C707        C  0.11186283  0.60156257  0.27489552    -0.06500
C708        C  0.15154693  0.63661616  0.22503840    -0.05800
C709        C  0.11066008  0.65937948  0.26556002    -0.06600
C710        C  0.12879530  0.61822652  0.30768507    -0.06500
C711        C  0.17546545  0.64262560  0.19494426    -0.31900
N712        N  0.17429645  0.62925450  0.14467010     0.14600
C713        C  0.14936556  0.61552384  0.14242180    -0.31900
H714        H  0.14206590  0.60336599  0.10705627     0.16600
C715        C  0.09456140  0.68260502  0.28218195    -0.30800
N716        N  0.06937628  0.68176332  0.25666115     0.13400
C717        C  0.06814782  0.65701954  0.22794632    -0.30800
C718        C  0.13109636  0.60582698  0.35910171    -0.31100
N719        N  0.11689010  0.58127356  0.35842376     0.13900
H720        H  0.14325718  0.61358374  0.39383881     0.16500
C721        C  0.10454262  0.57876672  0.30739162    -0.31100
H722        H  0.09156200  0.56135150  0.29448259     0.16500
H723        H  0.04933773  0.64965654  0.20808405     0.16500
H724        H  0.19235444  0.65609701  0.20839629     0.16600
H725        H  0.09967595  0.69853733  0.31282418     0.16500
N726        N  0.49687118  0.71134861  0.25194478    -0.36200
N727        N  0.03949942  0.75501867  0.26063879    -0.56800
N728        N  0.49555227  0.79819043  0.24756635    -0.36200
N729        N  0.45283628  0.75460718  0.24930606    -0.56800
C730        C  0.01959258  0.69615864  0.26700377     0.27400
C731        C  0.47384816  0.69597102  0.26378081     0.27400
C732        C  0.01773489  0.81388015  0.26432127     0.27400
C733        C  0.47198077  0.81375056  0.25642321     0.27400
C734        C  0.05582793  0.73217077  0.24961200     0.36000
C735        C  0.05519074  0.77798354  0.24971667     0.36000
C736        C  0.43775555  0.73115285  0.23779081     0.36000
C737        C  0.43709263  0.77687830  0.23354537     0.36000
C738        C  0.01089665  0.67100022  0.28905612    -0.21500
C739        C  0.48211188  0.67090582  0.28718511    -0.21500
C740        C  0.00802793  0.83953908  0.28457463    -0.21500
C741        C  0.47932982  0.83947114  0.27954753    -0.21500
C742        C  0.08181431  0.74075683  0.23114254    -0.22600
C743        C  0.08141340  0.76962147  0.23124680    -0.22600
C744        C  0.41253083  0.73858961  0.21420603    -0.22600
C745        C  0.41215679  0.76739868  0.21133212    -0.22600
C746        C  0.04795573  0.70372469  0.25821719    -0.17900
C747        C  0.44574320  0.70319991  0.25087114    -0.17900
C748        C  0.44415424  0.80566344  0.24238814    -0.17900
C749        C  0.04656151  0.80638378  0.25841641    -0.17900
H750        H  0.02392600  0.65440475  0.30496884     0.15000
H751        H  0.46883054  0.65417164  0.30141483     0.15000
H752        H  0.02029483  0.85662065  0.30152808     0.15000
H753        H  0.46549810  0.85641510  0.29219285     0.15000
H754        H  0.09923094  0.72769359  0.21809329     0.13300
H755        H  0.09843179  0.78283902  0.21815339     0.13300
H756        H  0.39613674  0.72472669  0.19996628     0.13300
H757        H  0.39540095  0.77986425  0.19446215     0.13300
H758        H  0.49720763  0.72974058  0.22934089     0.26500
H759        H  0.49669411  0.77911059  0.22610001     0.26500
C760        C  0.35271813  0.86254780  0.27182994     0.30400
C761        C  0.38594195  0.89625705  0.21123108     0.30400
C762        C  0.34111490  0.87011006  0.21352635    -0.05800
C763        C  0.35901340  0.89147023  0.29844387    -0.06600
C764        C  0.38160555  0.85015097  0.25633209    -0.06500
C765        C  0.35738877  0.88849663  0.18329321    -0.05800
C766        C  0.37570904  0.90879213  0.26737760    -0.06600
C767        C  0.39859340  0.86738210  0.22594151    -0.06500
C768        C  0.34115769  0.89593376  0.13740763    -0.31900
N769        N  0.31705898  0.88073319  0.13668970     0.14600
C770        C  0.31750329  0.86422159  0.18180695    -0.31900
H771        H  0.30160593  0.84878663  0.18986265     0.16600
C772        C  0.37815928  0.93388005  0.29711588    -0.30800
N773        N  0.36394444  0.93205361  0.34611631     0.13400
C774        C  0.35179103  0.90620047  0.34669870    -0.30800
C775        C  0.42351860  0.85283465  0.21643234    -0.31100
N776        N  0.42209279  0.82708127  0.24033611     0.13900
H777        H  0.44140175  0.86054848  0.19379915     0.16500
C778        C  0.39622814  0.82526095  0.26382845    -0.31100
H779        H  0.38860696  0.80702510  0.28509607     0.16500
H780        H  0.33881527  0.89851101  0.38001893     0.16500
H781        H  0.34600361  0.91172037  0.10716762     0.16600
H782        H  0.38983044  0.95206579  0.28437352     0.16500
N783        N  0.11990328  0.50899099  0.41593354    -0.36200
N784        N  0.12485899  0.96539548  0.50017411    -0.56800
N785        N  0.11964354  0.50873756  0.58804393    -0.36200
N786        N  0.12027075  0.55254120  0.50332108    -0.56800
C787        C  0.12818998  0.98649549  0.38459630     0.27400
C788        C  0.12531482  0.53225611  0.38618954     0.27400
C789        C  0.12641386  0.98575100  0.61808245     0.27400
C790        C  0.12509898  0.53191003  0.61990926     0.27400
C791        C  0.11864079  0.94994670  0.45391984     0.36000
C792        C  0.11812205  0.94945599  0.54453656     0.36000
C793        C  0.11379526  0.56836811  0.45858808     0.36000
C794        C  0.11484633  0.56851719  0.54951323     0.36000
C795        C  0.13929688  0.99556784  0.33487822    -0.21500
C796        C  0.13765517  0.52443258  0.33605262    -0.21500
C797        C  0.13637511  0.99448433  0.66946675    -0.21500
C798        C  0.13556496  0.52344618  0.67060852    -0.21500
C799        C  0.10743279  0.92452392  0.46904711    -0.22600
C800        C  0.10737266  0.92403079  0.52622600    -0.22600
C801        C  0.10416516  0.59440727  0.47661007    -0.22600
C802        C  0.10489172  0.59453210  0.53385954    -0.22600
C803        C  0.12406008  0.95800929  0.39821662    -0.17900
C804        C  0.11799381  0.56020549  0.40173860    -0.17900
C805        C  0.11970198  0.56041846  0.60558485    -0.17900
C806        C  0.12244170  0.95714681  0.60131290    -0.17900
H807        H  0.14770970  0.98274034  0.30122472     0.15000
H808        H  0.14498707  0.53810920  0.30379394     0.15000
H809        H  0.14364675  0.98141157  0.70277716     0.15000
H810        H  0.14213522  0.53671074  0.70498375     0.15000
H811        H  0.09927259  0.90840857  0.44164420     0.13300
H812        H  0.09956656  0.90715085  0.55135742     0.13300
H813        H  0.09719719  0.61157311  0.45126658     0.13300
H814        H  0.09845662  0.61178825  0.56078289     0.13300
H815        H  0.10835934  0.50834296  0.45253132     0.26500
H816        H  0.10931291  0.50851494  0.55025590     0.26500
N817        N  0.36479810  0.50475599  0.40885365    -0.36200
N818        N  0.36478579  0.96111845  0.49255546    -0.56800
N819        N  0.37088353  0.50501391  0.58037782    -0.36200
N820        N  0.36547679  0.54873598  0.49683161    -0.56800
C821        C  0.35800315  0.98182418  0.37743761     0.27400
C822        C  0.35812356  0.52789164  0.37943983     0.27400
C823        C  0.36462143  0.98190124  0.61029693     0.27400
C824        C  0.36538447  0.52803515  0.61297132     0.27400
C825        C  0.36931945  0.94508236  0.44613758     0.36000
C826        C  0.37203680  0.94521064  0.53651069     0.36000
C827        C  0.37004475  0.56448206  0.45100037     0.36000
C828        C  0.37305781  0.56458857  0.54189446     0.36000
C829        C  0.34654950  0.99056714  0.32786277    -0.21500
C830        C  0.34661630  0.51951923  0.32912710    -0.21500
C831        C  0.35471957  0.99045507  0.66215600    -0.21500
C832        C  0.35521802  0.51938170  0.66382577    -0.21500
C833        C  0.37960311  0.91906323  0.46088846    -0.22600
C834        C  0.38128949  0.91914965  0.51788634    -0.22600
C835        C  0.38067544  0.59032275  0.46722278    -0.22600
C836        C  0.38259030  0.59037625  0.52433834    -0.22600
C837        C  0.36351540  0.95328408  0.39072506    -0.17900
C838        C  0.36406253  0.55626285  0.39480426    -0.17900
C839        C  0.37027151  0.55657342  0.59876356    -0.17900
C840        C  0.36903880  0.95330078  0.59335525    -0.17900
H841        H  0.33902706  0.97746338  0.29403835     0.15000
H842        H  0.33919669  0.53288530  0.29640031     0.15000
H843        H  0.34757881  0.97728437  0.69545337     0.15000
H844        H  0.34846304  0.53248158  0.69850572     0.15000
H845        H  0.38578898  0.90186517  0.43361974     0.13300
H846        H  0.38889696  0.90202949  0.54263193     0.13300
H847        H  0.38691357  0.60733064  0.44078955     0.13300
H848        H  0.39055920  0.60741511  0.54980919     0.13300
H849        H  0.37635097  0.50466183  0.44548609     0.26500
H850        H  0.38100537  0.50496258  0.54190261     0.26500
C851        C  0.10380709  0.89706815  0.77393404     0.30400
C852        C  0.13685692  0.86459592  0.70735646     0.30400
C853        C  0.13087740  0.88601747  0.80189170    -0.05800
C854        C  0.09050432  0.86922224  0.75371874    -0.06600
C855        C  0.11375612  0.91068786  0.72012154    -0.06500
C856        C  0.14798933  0.86954880  0.76781500    -0.05800
C857        C  0.10713048  0.85232839  0.71951817    -0.06600
C858        C  0.13041879  0.89433026  0.68637797    -0.06500
C859        C  0.17116566  0.86235941  0.79989927    -0.31900
N860        N  0.16888868  0.87425189  0.85198161     0.14600
C861        C  0.14373438  0.88775444  0.85372065    -0.31900
H862        H  0.13560412  0.89866940  0.89000104     0.16600
C863        C  0.09235169  0.82718185  0.71252851    -0.30800
N864        N  0.06724854  0.82903099  0.73961618     0.13400
C865        C  0.06654880  0.85428498  0.76634044    -0.30800
C866        C  0.13597063  0.90979649  0.63907498    -0.31100
N867        N  0.12279730  0.93520891  0.64321588     0.13900
H868        H  0.14840201  0.90280720  0.60378760     0.16500
C869        C  0.10905619  0.93576061  0.69297055    -0.31100
H870        H  0.09596561  0.95287204  0.70787089     0.16500
H871        H  0.05006294  0.86083587  0.79462152     0.16500
H872        H  0.18879238  0.84986880  0.78577503     0.16600
H873        H  0.09960775  0.80838724  0.69116240     0.16500
N874        N  0.03654041  0.75678391  0.74808790    -0.36200
N875        N  0.49395545  0.80093982  0.74468473    -0.56800
N876        N  0.45026948  0.75792646  0.74677340    -0.36200
N877        N  0.49297163  0.71409829  0.76005198    -0.56800
C878        C  0.05231043  0.78003415  0.75703339     0.27400
C879        C  0.05139176  0.73433067  0.76578765     0.27400
C880        C  0.43520858  0.78171967  0.75726055     0.27400
C881        C  0.43483810  0.73572121  0.76386976     0.27400
C882        C  0.01701870  0.81594066  0.73101165     0.36000
C883        C  0.47131053  0.81678108  0.73155320     0.36000
C884        C  0.01561897  0.69770721  0.74918240     0.36000
C885        C  0.47028222  0.69829420  0.74781599     0.36000
C886        C  0.07730682  0.77229025  0.78120010    -0.21500
C887        C  0.07667899  0.74355650  0.78694200    -0.21500
C888        C  0.41014932  0.77446078  0.78207176    -0.21500
C889        C  0.40984770  0.74558195  0.78598154    -0.21500
C890        C  0.00889182  0.84127909  0.70866596    -0.22600
C891        C  0.48009393  0.84179449  0.70896941    -0.22600
C892        C  0.00731177  0.67165076  0.72942650    -0.22600
C893        C  0.47865476  0.67203906  0.72836062    -0.22600
C894        C  0.04525279  0.80786330  0.74170806    -0.17900
C895        C  0.04364843  0.70561784  0.75905442    -0.17900
C896        C  0.44216337  0.70676782  0.75707525    -0.17900
C897        C  0.44291995  0.80965362  0.74281226    -0.17900
H898        H  0.09425570  0.78590438  0.79365096     0.15000
H899        H  0.09308761  0.73090602  0.80457081     0.15000
H900        H  0.39388676  0.78854132  0.79672789     0.15000
H901        H  0.39317276  0.73328860  0.80360174     0.15000
H902        H  0.02227887  0.85775039  0.69364103     0.13300
H903        H  0.46715281  0.85869976  0.69408717     0.13300
H904        H  0.02045835  0.65427104  0.71618526     0.13300
H905        H  0.46560853  0.65496335  0.71402901     0.13300
H906        H  0.01804849  0.75592137  0.72552380     0.26500
H907        H  0.46880057  0.75664832  0.72398722     0.26500
C908        C  0.35376600  0.64667770  0.71706142     0.30400
C909        C  0.38696298  0.61501397  0.78158227     0.30400
C910        C  0.36331886  0.61834608  0.69115235    -0.05800
C911        C  0.38178192  0.66081225  0.73456088    -0.06600
C912        C  0.34124751  0.63928743  0.77420111    -0.06500
C913        C  0.37974636  0.60166794  0.72402005    -0.05800
C914        C  0.39854537  0.64421564  0.76753737    -0.06600
C915        C  0.35741450  0.62181135  0.80575704    -0.06500
C916        C  0.38407752  0.57670445  0.69368738    -0.31900
N917        N  0.37117168  0.57820513  0.64307203     0.14600
C918        C  0.35835949  0.60373086  0.64184121    -0.31900
H919        H  0.34559610  0.61099331  0.60796858     0.16600
C920        C  0.42198595  0.65962748  0.78167884    -0.30800
N921        N  0.42041082  0.68533227  0.75799116     0.13400
C922        C  0.39561711  0.68651551  0.73080237    -0.30800
C923        C  0.34143252  0.61535453  0.85235611    -0.31100
N924        N  0.31759412  0.63072701  0.85285551     0.13900
H925        H  0.34636477  0.60034007  0.88403058     0.16500
C926        C  0.31706173  0.64527375  0.80459880    -0.31100
H927        H  0.30029805  0.65909685  0.79233906     0.16500
H928        H  0.38848736  0.70533465  0.71109075     0.16500
H929        H  0.39557599  0.55862722  0.70776037     0.16600
H930        H  0.43908783  0.65247362  0.80709111     0.16500
N931        N  0.24309333  0.87849403  0.08213565    -0.36200
N932        N  0.28603299  0.88268005  0.99424229    -0.56800
N933        N  0.24219233  0.87738145  0.90969315    -0.36200
N934        N  0.19874987  0.87886052  0.99761394    -0.56800
C935        C  0.26642359  0.88469944  0.11236145     0.27400
C936        C  0.22025279  0.88434371  0.11471433     0.27400
C937        C  0.26447543  0.88596584  0.87872160     0.27400
C938        C  0.21857608  0.88229863  0.87984204     0.27400
C939        C  0.30257457  0.87715099  0.03833641     0.36000
C940        C  0.30197675  0.87826931  0.94813888     0.36000
C941        C  0.18311491  0.87416394  0.04408068     0.36000
C942        C  0.18285982  0.87172223  0.95266612     0.36000
C943        C  0.25827552  0.89443433  0.16450044    -0.21500
C944        C  0.22941688  0.89444028  0.16584601    -0.21500
C945        C  0.25478302  0.89658221  0.82917522    -0.21500
C946        C  0.22604183  0.89445203  0.83007778    -0.21500
C947        C  0.32886873  0.86892227  0.02007747    -0.22600
C948        C  0.32848743  0.86960353  0.96310109    -0.22600
C949        C  0.15731362  0.86378722  0.02831356    -0.22600
C950        C  0.15718950  0.86215259  0.97096372    -0.22600
C951        C  0.29493641  0.88097478  0.09497709    -0.17900
C952        C  0.19143940  0.87972640  0.10050644    -0.17900
C953        C  0.19052136  0.87538924  0.89543134    -0.17900
C954        C  0.29340275  0.88335836  0.89286141    -0.17900
H955        H  0.27173166  0.90122354  0.19806368     0.15000
H956        H  0.21670890  0.90139663  0.20071807     0.15000
H957        H  0.26709280  0.90538235  0.79599352     0.15000
H958        H  0.21216285  0.90181032  0.79820780     0.15000
H959        H  0.34653753  0.86286903  0.04506196     0.13300
H960        H  0.34577000  0.86402232  0.93597525     0.13300
H961        H  0.14041709  0.85750999  0.05526863     0.13300
H962        H  0.14008624  0.85458478  0.94574447     0.13300
H963        H  0.24292309  0.86863403  0.04403911     0.26500
H964        H  0.24314547  0.86651136  0.94614721     0.26500
N965        N  0.24706358  0.63118495  0.08569286    -0.36200
N966        N  0.20325065  0.63140205  0.00011255    -0.56800
N967        N  0.24591612  0.63411246  0.91401700    -0.36200
N968        N  0.28983704  0.62853175  0.99914225    -0.56800
C969        C  0.22397334  0.62416509  0.11540453     0.27400
C970        C  0.26986580  0.62340078  0.11543455     0.27400
C971        C  0.22290502  0.62783673  0.88359581     0.27400
C972        C  0.26846415  0.62648518  0.88300052     0.27400
C973        C  0.18758066  0.63653500  0.04624740     0.36000
C974        C  0.18722187  0.63816837  0.95593213     0.36000
C975        C  0.30621227  0.63319941  0.04441530     0.36000
C976        C  0.30538565  0.63478492  0.95361200     0.36000
C977        C  0.23226934  0.61150302  0.16401094    -0.21500
C978        C  0.26108604  0.61122667  0.16430215    -0.21500
C979        C  0.23097136  0.61589333  0.83315629    -0.21500
C980        C  0.25970644  0.61491939  0.83299228    -0.21500
C981        C  0.16167078  0.64691366  0.03128604    -0.22600
C982        C  0.16145188  0.64796620  0.97419310    -0.22600
C983        C  0.33208603  0.64271044  0.02742458    -0.22600
C984        C  0.33163339  0.64358295  0.97018689    -0.22600
C985        C  0.19565184  0.63011311  0.10131831    -0.17900
C986        C  0.29837660  0.62796545  0.10062888    -0.17900
C987        C  0.29675038  0.63108323  0.89722830    -0.17900
C988        C  0.19487728  0.63355441  0.89938246    -0.17900
H989        H  0.21892174  0.60276302  0.19548545     0.15000
H990        H  0.27407998  0.60257920  0.19648207     0.15000
H991        H  0.21757788  0.60825751  0.80019980     0.15000
H992        H  0.27273690  0.60610007  0.80035944     0.15000
H993        H  0.14463215  0.65310400  0.05854088     0.13300
H994        H  0.14422376  0.65510800  0.94913116     0.13300
H995        H  0.34933373  0.64895306  0.05351755     0.13300
H996        H  0.34864140  0.65026930  0.94389213     0.13300
H997        H  0.24724105  0.64312714  0.04994237     0.26500
H998        H  0.24635120  0.64552755  0.95125152     0.26500
C999        C  0.38367576  0.90035368  0.77672247     0.30400
C1000       C  0.35098883  0.86558782  0.71531588     0.30400
C1001       C  0.35503458  0.89305797  0.80281679    -0.05800
C1002       C  0.37594522  0.91119678  0.71819173    -0.06600
C1003       C  0.39698960  0.87135750  0.76088034    -0.06500
C1004       C  0.33875061  0.87538338  0.77122368    -0.05800
C1005       C  0.35891328  0.89374959  0.68663798    -0.06600
C1006       C  0.38018472  0.85367056  0.72949006    -0.06500
C1007       C  0.31418515  0.87066819  0.80008199    -0.31900
N1008       N  0.31474711  0.88504072  0.84923845     0.14600
C1009       C  0.33972005  0.89901580  0.85109402    -0.31900
H1010       H  0.34652886  0.91219946  0.88541684     0.16600
C1011       C  0.35583094  0.90687917  0.63533311    -0.30800
N1012       N  0.36972375  0.93171796  0.63576756     0.13400
C1013       C  0.38326688  0.93363745  0.68491047    -0.30800
C1014       C  0.39562440  0.82948064  0.71771304    -0.31100
N1015       N  0.42130402  0.83156988  0.74172086     0.13900
H1016       H  0.38859456  0.81156814  0.69347999     0.16500
C1017       C  0.42245765  0.85743687  0.76686326    -0.31100
H1018       H  0.44065363  0.86557364  0.78789738     0.16500
H1019       H  0.39782532  0.95023428  0.69462833     0.16500
H1020       H  0.29733914  0.85712265  0.78673737     0.16600
H1021       H  0.34492887  0.89898372  0.59921842     0.16500
C1022       C  0.38855191  0.61282599  0.21766959     0.30400
C1023       C  0.35524303  0.64727413  0.28020776     0.30400
C1024       C  0.37866183  0.60051415  0.27440070    -0.05800
C1025       C  0.40118315  0.64132364  0.23478783    -0.06600
C1026       C  0.35997812  0.62056197  0.19092772    -0.06500
C1027       C  0.36158808  0.61821851  0.30618460    -0.05800
C1028       C  0.38427640  0.65868447  0.26628054    -0.06600
C1029       C  0.34297473  0.63807227  0.22315850    -0.06500
C1030       C  0.35299062  0.60309946  0.35237519    -0.31900
N1031       N  0.36516736  0.57730213  0.35119935     0.14600
C1032       C  0.37980624  0.57513148  0.30269775    -0.31900
H1033       H  0.38987571  0.55591929  0.28893418     0.16600
C1034       C  0.39895580  0.68320018  0.27669046    -0.30800
N1035       N  0.42444715  0.68137268  0.25150959     0.13400
C1036       C  0.42597622  0.65565294  0.22595279    -0.30800
C1037       C  0.31820421  0.64160001  0.19408766    -0.31100
N1038       N  0.31976090  0.62764270  0.14421141     0.13900
H1039       H  0.30023988  0.65356649  0.20823676     0.16500
C1040       C  0.34508153  0.61424975  0.14258064    -0.31100
H1041       H  0.35214326  0.60072995  0.10877102     0.16500
H1042       H  0.44363236  0.64808347  0.20173660     0.16500
H1043       H  0.33848199  0.60997942  0.38439096     0.16600
H1044       H  0.39146447  0.70120349  0.30043521     0.16500
C1045       C  0.13444823  0.65106254  0.72567191     0.30400
C1046       C  0.10439663  0.61653078  0.79072020     0.30400
C1047       C  0.14874171  0.64232755  0.78000337    -0.05800
C1048       C  0.10563372  0.66196117  0.74364104    -0.06600
C1049       C  0.12755734  0.62199139  0.69835536    -0.06500
C1050       C  0.13314486  0.62509477  0.81296703    -0.05800
C1051       C  0.08990824  0.64469336  0.77675597    -0.06600
C1052       C  0.11127332  0.60466193  0.73117933    -0.06500
C1053       C  0.14857790  0.61954758  0.85994760    -0.31900
N1054       N  0.17331059  0.63327683  0.85694020     0.14600
C1055       C  0.17383577  0.64685810  0.80751696    -0.31900
H1056       H  0.19108714  0.65938111  0.79299448     0.16600
C1057       C  0.06467185  0.65875512  0.78589283    -0.30800
N1058       N  0.06529230  0.68404016  0.75979421     0.13400
C1059       C  0.09020790  0.68571303  0.73314238    -0.30800
C1060       C  0.10552515  0.58077083  0.69910274    -0.31100
N1061       N  0.11943586  0.58197818  0.64970416     0.13900
H1062       H  0.09214323  0.56359466  0.71073139     0.16500
C1063       C  0.13334860  0.60684999  0.64945350    -0.31100
H1064       H  0.14718417  0.61298334  0.61624051     0.16500
H1065       H  0.09665685  0.70299335  0.70753206     0.16500
H1066       H  0.14219457  0.60649590  0.89405905     0.16600
H1067       H  0.04714960  0.65113622  0.80966830     0.16500
C1068       C  0.13619812  0.86544187  0.28591545     0.30400
C1069       C  0.10201892  0.89669842  0.22360113     0.30400
C1070       C  0.14764358  0.87207940  0.22646283    -0.05800
C1071       C  0.10726911  0.85274022  0.27474667    -0.06600
C1072       C  0.13027727  0.89522136  0.30951985    -0.06500
C1073       C  0.13021249  0.88853827  0.19443932    -0.05800
C1074       C  0.09010749  0.86865835  0.24272524    -0.06600
C1075       C  0.11255406  0.91122676  0.27809954    -0.06500
C1076       C  0.14471872  0.89368057  0.14494735    -0.31900
N1077       N  0.17007252  0.88023855  0.14509419     0.14600
C1078       C  0.17193468  0.86732305  0.19522898    -0.31900
H1079       H  0.18999059  0.85552006  0.20835272     0.16600
C1080       C  0.06590485  0.85349384  0.23348981    -0.30800
N1081       N  0.06763072  0.82855253  0.25999775     0.13400
C1082       C  0.09302001  0.82805031  0.28575278    -0.30800
C1083       C  0.10981314  0.93706315  0.30592009    -0.31100
N1084       N  0.12464881  0.93667608  0.35396094     0.13900
H1085       H  0.09760879  0.95488312  0.29283442     0.16500
C1086       C  0.13825337  0.91164570  0.35504521    -0.31100
H1087       H  0.15284836  0.90592153  0.38702975     0.16500
H1088       H  0.10084598  0.81081427  0.30995180     0.16500
H1089       H  0.13747235  0.90669722  0.11156686     0.16600
H1090       H  0.04857546  0.85989387  0.20788359     0.16500
O1091       O  0.01285155  0.54126585  0.08244183    -0.79800
O1092       O  0.47225944  0.55152849  0.93792944    -0.79800
O1093       O  0.05625689  0.51377006  0.94467100    -0.79800
O1094       O  0.44381671  0.52128454  0.05423741    -0.79700
O1095       O  0.02617673  0.54746291  0.94258913    -0.79900
O1096       O  0.48425010  0.53775647  0.08732937    -0.79800
O1097       O  0.43784184  0.52189337  0.94355073    -0.79800
O1098       O  0.05035023  0.51890075  0.05408383    -0.79800
C1099       C  0.03914260  0.53996642  0.07872224     1.09900
C1100       C  0.44734425  0.54552884  0.92994386     1.09800
C1101       C  0.05053828  0.53908576  0.93506473     1.10000
C1102       C  0.45772084  0.53921455  0.08295928     1.09800
O1103       O  0.47206425  0.98795725  0.11050361    -0.79800
O1104       O  0.02361332  0.99370966  0.87897183    -0.79800
O1105       O  0.02339513  0.96391558  0.05984763    -0.79800
O1106       O  0.46557454  0.96748959  0.93536325    -0.79700
O1107       O  0.46812923  0.99922069  0.87238301    -0.79800
O1108       O  0.02124132  0.99253470  0.13326805    -0.79800
O1109       O  0.46662680  0.96236824  0.03944561    -0.79700
O1110       O  0.02393662  0.96221271  0.94481525    -0.79800
Co1111     Co  0.50399087  0.50265789  0.06548894     1.51500
Co1112     Co  0.49771823  0.52293313  0.91196019     1.51700
Co1113     Co  0.03497332  0.49024038  0.99937344     1.51600
Co1114     Co  0.45539687  0.49345770  0.99340955     1.51500
O1115       O  0.49461359  0.50737902  0.98911234    -1.41700
C1116       C  0.46149170  0.96650896  0.08923003     1.09900
C1117       C  0.02865975  0.96903019  0.89560109     1.10000
C1118       C  0.02766423  0.96872991  0.11180416     1.09900
C1119       C  0.46031567  0.97504793  0.88745918     1.09900
O1120       O  0.28365276  0.71750957  0.46858280    -0.79800
O1121       O  0.28745970  0.78726810  0.54642522    -0.79800
O1122       O  0.25977858  0.77664574  0.37116554    -0.79800
O1123       O  0.27027844  0.73199996  0.58932077    -0.79700
O1124       O  0.29004829  0.78403517  0.43717717    -0.79900
O1125       O  0.26198197  0.69159815  0.55185577    -0.79800
O1126       O  0.25477310  0.78395496  0.60852345    -0.79800
O1127       O  0.26030594  0.72228133  0.39120976    -0.79800
C1128       C  0.28243157  0.71515396  0.41652235     1.09900
C1129       C  0.27862773  0.79226379  0.59438754     1.09800
C1130       C  0.28358595  0.78512423  0.38698023     1.10000
C1131       C  0.27436744  0.70571798  0.58698876     1.09800
O1132       O  0.21323080  0.71478142  0.55535928    -0.79800
O1133       O  0.23721313  0.81380682  0.42829723    -0.79800
O1134       O  0.20496532  0.72815867  0.44707671    -0.79800
O1135       O  0.20404122  0.77771695  0.54789359    -0.79700
O1136       O  0.23212079  0.81382667  0.53902216    -0.79800
O1137       O  0.23021800  0.69180101  0.45051518    -0.79800
O1138       O  0.21861406  0.74255874  0.62955467    -0.79700
O1139       O  0.20587490  0.78096152  0.42939743    -0.79800
Co1140     Co  0.24692657  0.71735904  0.50255943     1.51500
Co1141     Co  0.26198731  0.79803354  0.48818982     1.51700
Co1142     Co  0.23274450  0.75224382  0.41320655     1.51600
Co1143     Co  0.23612755  0.75385910  0.56449538     1.51500
O1144       O  0.24879512  0.75864829  0.48866436    -1.41700
C1145       C  0.20589186  0.72286992  0.60459402     1.09900
C1146       C  0.21314904  0.80478278  0.41597825     1.10000
C1147       C  0.20819900  0.70289209  0.43518346     1.09900
C1148       C  0.20857815  0.80367161  0.55297730     1.09900
C1149       C  0.05413444  0.92504544  0.11243954    -0.19900
C1150       C  0.04110632  0.94685438  0.14318027    -0.06500
C1151       C  0.04329819  0.94773564  0.20132890     0.14400
C1152       C  0.06107546  0.92866053  0.22571220    -0.20000
C1153       C  0.07977855  0.91229959  0.19341991    -0.06500
C1154       C  0.07289146  0.90700331  0.13730691     0.14400
C1155       C  0.08281389  0.88200628  0.10322395    -0.23300
H1156       H  0.05045094  0.92236947  0.06825919     0.15700
H1157       H  0.06083538  0.92724212  0.27044057     0.15700
C1158       C  0.02809432  0.96877381  0.23808726    -0.23300
H1159       H  0.06440538  0.87048609  0.08691933     0.05900
H1160       H  0.09491265  0.86664007  0.12717040     0.09100
H1161       H  0.09541970  0.88912454  0.06736329     0.09100
H1162       H  0.00541877  0.96797744  0.23008956     0.09100
H1163       H  0.03600724  0.99021008  0.23051113     0.09100
H1164       H  0.03130034  0.96459515  0.28287182     0.05900
C1165       C  0.16905423  0.82584020  0.29628113    -0.19900
C1166       C  0.15353905  0.84721059  0.32181120    -0.06500
C1167       C  0.15282290  0.84853642  0.38063753     0.14400
C1168       C  0.17539652  0.83773777  0.40921946    -0.20000
C1169       C  0.19411803  0.81992551  0.38169929    -0.06500
C1170       C  0.18847463  0.81096187  0.32636457     0.14400
C1171       C  0.20075073  0.78526356  0.29819167    -0.23300
H1172       H  0.16531484  0.82000263  0.25327690     0.15700
H1173       H  0.17660775  0.84058989  0.45397029     0.15700
C1174       C  0.12745951  0.85672647  0.41448723    -0.23300
H1175       H  0.18365015  0.77059481  0.28701305     0.05900
H1176       H  0.21133008  0.79121108  0.25908139     0.09100
H1177       H  0.21550645  0.77377117  0.32441838     0.09100
H1178       H  0.12015424  0.83818454  0.43767361     0.09100
H1179       H  0.10972315  0.86374917  0.38884055     0.09100
H1180       H  0.13307047  0.87313972  0.44552048     0.05900
C1181       C  0.17840820  0.71429856  0.68834536    -0.19900
C1182       C  0.18290840  0.70864353  0.63184584    -0.06500
C1183       C  0.16611098  0.68858919  0.60389303     0.14400
C1184       C  0.14911389  0.67151449  0.63541793    -0.20000
C1185       C  0.14945186  0.67310008  0.69342305    -0.10100
C1186       C  0.16080323  0.69753931  0.71928999     0.14400
C1187       C  0.15461116  0.70756202  0.77803668    -0.23300
H1188       H  0.18907098  0.73152655  0.70905704     0.15700
H1189       H  0.13524669  0.65725006  0.61424815     0.15700
C1190       C  0.16571354  0.68454473  0.54154853    -0.23300
H1191       H  0.14586816  0.72915033  0.77687898     0.05900
H1192       H  0.17418847  0.70821105  0.80250057     0.09100
H1193       H  0.13920822  0.69476153  0.80037875     0.09100
H1194       H  0.18567951  0.67508076  0.52703286     0.09100
H1195       H  0.16188303  0.70494413  0.52130803     0.09100
H1196       H  0.14897169  0.66997945  0.52785134     0.05900
C1197       C  0.09780437  0.56850610  0.82680592    -0.19900
C1198       C  0.09103072  0.59712313  0.83192588    -0.06500
C1199       C  0.07870686  0.60652027  0.88286428     0.14400
C1200       C  0.06673712  0.58674131  0.91767330    -0.20000
C1201       C  0.06960646  0.55795327  0.90661219    -0.06500
C1202       C  0.08672180  0.54877165  0.86234304     0.14400
C1203       C  0.09274038  0.51841907  0.85050985    -0.23300
H1204       H  0.11256208  0.56128482  0.79572372     0.15700
H1205       H  0.05516137  0.59385944  0.95404600     0.15700
C1206       C  0.07957681  0.63628314  0.90517874    -0.23300
H1207       H  0.10663947  0.51544286  0.81380289     0.05900
H1208       H  0.07301913  0.50735380  0.84113208     0.09100
H1209       H  0.10328294  0.50932098  0.88698684     0.09100
H1210       H  0.05813233  0.64513661  0.90740039     0.09100
H1211       H  0.09323130  0.65027453  0.88127968     0.09100
H1212       H  0.08830415  0.63630221  0.94785900     0.05900
C1213       C  0.42477075  0.57462879  0.20695565    -0.19900
C1214       C  0.40895218  0.59580324  0.18207517    -0.06500
C1215       C  0.41542995  0.60251604  0.12610112     0.14400
C1216       C  0.43209820  0.58390293  0.09456183    -0.20000
C1217       C  0.44279020  0.55954399  0.11789633    -0.06500
C1218       C  0.44027145  0.55544554  0.17534686     0.14400
C1219       C  0.45342896  0.53072829  0.20360430    -0.23300
H1220       H  0.42602796  0.57339487  0.25140134     0.15700
H1221       H  0.43747806  0.58871542  0.05210118     0.15700
C1222       C  0.40688354  0.62956254  0.09905514    -0.23300
H1223       H  0.44972790  0.53133887  0.24919753     0.05900
H1224       H  0.47633020  0.53052195  0.19642263     0.09100
H1225       H  0.44407908  0.51106223  0.18720708     0.09100
H1226       H  0.39641936  0.64475697  0.12729495     0.09100
H1227       H  0.39242274  0.62513380  0.06450271     0.09100
H1228       H  0.42568617  0.64016660  0.08250828     0.05900
C1229       C  0.30708790  0.70739679  0.32806215    -0.19900
C1230       C  0.30495702  0.70158484  0.38483002    -0.06500
C1231       C  0.32314844  0.68174220  0.40836682     0.14400
C1232       C  0.34081594  0.66647054  0.37325478    -0.20000
C1233       C  0.33887932  0.66825168  0.31528781    -0.06500
C1234       C  0.32501253  0.69194724  0.29332756     0.14400
C1235       C  0.32983125  0.70310137  0.23576335    -0.23300
H1236       H  0.29486709  0.72430907  0.31070921     0.15700
H1237       H  0.35628031  0.65304887  0.39169444     0.15700
C1238       C  0.32360705  0.67538109  0.46951478    -0.23300
H1239       H  0.33678139  0.72525289  0.23920868     0.05900
H1240       H  0.31010259  0.70256868  0.21179297     0.09100
H1241       H  0.34631410  0.69176163  0.21216495     0.09100
H1242       H  0.30271289  0.66828307  0.48336014     0.09100
H1243       H  0.32999459  0.69430389  0.49326516     0.09100
H1244       H  0.33870856  0.65844436  0.47930913     0.05900
C1245       C  0.31402296  0.85645674  0.64528606    -0.19900
C1246       C  0.33103381  0.84572900  0.68692898    -0.06500
C1247       C  0.32544783  0.81812923  0.70614890     0.14400
C1248       C  0.30703919  0.80118680  0.67614891    -0.20000
C1249       C  0.29420561  0.81124888  0.62876047    -0.06500
C1250       C  0.29757934  0.83922494  0.61279213     0.14400
C1251       C  0.28397374  0.85151834  0.56215586    -0.23300
H1252       H  0.31198429  0.87861965  0.63962986     0.15700
H1253       H  0.30298731  0.77995245  0.68938150     0.15700
C1254       C  0.33667536  0.80590405  0.75900205    -0.23300
H1255       H  0.29095648  0.87335519  0.55497007     0.05900
H1256       H  0.26117262  0.85239494  0.56781250     0.09100
H1257       H  0.28946840  0.83910709  0.52426823     0.09100
H1258       H  0.31893658  0.79949194  0.78573916     0.09100
H1259       H  0.34929689  0.82054396  0.78428100     0.09100
H1260       H  0.34938729  0.78699419  0.74872279     0.05900
C1261       C  0.39974891  0.94914790  0.80218313    -0.19900
C1262       C  0.40095454  0.92018923  0.81210036    -0.06500
C1263       C  0.41848332  0.91088469  0.85487233     0.14400
C1264       C  0.43949400  0.92866607  0.87357646    -0.20000
C1265       C  0.44136102  0.95671375  0.85597187    -0.06500
C1266       C  0.42052614  0.96732600  0.82096439     0.14400
C1267       C  0.41911580  0.99769906  0.80494419    -0.23300
H1268       H  0.38226528  0.95779258  0.77995317     0.15700
H1269       H  0.45365710  0.92083366  0.90478508     0.15700
C1270       C  0.41410025  0.88391500  0.88570450    -0.23300
H1271       H  0.40146400  0.50190149  0.77644982     0.05900
H1272       H  0.43863395  0.50368138  0.78320423     0.09100
H1273       H  0.41602215  0.51100441  0.84261139     0.09100
H1274       H  0.43308849  0.87055855  0.88293187     0.09100
H1275       H  0.39590899  0.87179722  0.87070568     0.09100
H1276       H  0.41012376  0.88893289  0.93025245     0.05900
C1277       C  0.44256885  0.56594279  0.83881664    -0.19900
C1278       C  0.43209626  0.56326582  0.89307452    -0.06500
C1279       C  0.41075975  0.58079425  0.91246452     0.14400
C1280       C  0.40066902  0.60088948  0.87709793    -0.20000
C1281       C  0.40602660  0.59920875  0.81974523    -0.06500
C1282       C  0.42992717  0.58410387  0.80158659     0.14400
C1283       C  0.44408613  0.58813543  0.74622543    -0.23300
H1284       H  0.46081018  0.55396312  0.82566695     0.15700
H1285       H  0.38818075  0.61765565  0.89490293     0.15700
C1286       C  0.39826127  0.57918769  0.96954805    -0.23300
H1287       H  0.46599977  0.59476242  0.75326683     0.05900
H1288       H  0.43423718  0.60459375  0.72102716     0.09100
H1289       H  0.44434967  0.56806827  0.72219504     0.09100
H1290       H  0.40163245  0.59947683  0.99101680     0.09100
H1291       H  0.40719768  0.56204856  0.99442905     0.09100
H1292       H  0.37545396  0.57551239  0.96624945     0.05900
C1293       C  0.28735706  0.66516942  0.63987742    -0.19900
C1294       C  0.29445855  0.69165810  0.62051593    -0.06500
C1295       C  0.32164393  0.70177962  0.62543194     0.14400
C1296       C  0.34109922  0.68542578  0.65248007    -0.20000
C1297       C  0.33326736  0.66100250  0.68000471    -0.06500
C1298       C  0.30631546  0.64947613  0.66968305     0.14400
C1299       C  0.29629450  0.62083546  0.68727313    -0.23300
H1300       H  0.26669376  0.65674737  0.63198504     0.15700
H1301       H  0.36250890  0.69125835  0.64896788     0.15700
C1302       C  0.33038574  0.72939108  0.60125323    -0.23300
H1303       H  0.29119824  0.60804887  0.64972694     0.05900
H1304       H  0.27696800  0.62338912  0.71237234     0.09100
H1305       H  0.31126939  0.60849937  0.71155547     0.09100
H1306       H  0.31865827  0.74662682  0.62212785     0.09100
H1307       H  0.32601968  0.72985745  0.55613430     0.09100
H1308       H  0.35295608  0.73351073  0.60743279     0.05900
C1309       C  0.05631162  0.91750091  0.79042722    -0.19900
C1310       C  0.08474597  0.91677969  0.80563018    -0.06500
C1311       C  0.09466740  0.93796297  0.84228085     0.14400
C1312       C  0.07531183  0.95250935  0.87493034    -0.20000
C1313       C  0.04683329  0.95099219  0.86315509    -0.06500
C1314       C  0.03713551  0.93422483  0.81930477     0.14400
C1315       C  0.00676377  0.93345567  0.80404083    -0.23300
H1316       H  0.04897552  0.90540639  0.75506741     0.15700
H1317       H  0.08258971  0.96670234  0.90727865     0.15700
C1318       C  0.12435365  0.94857888  0.84332792    -0.23300
H1319       H  0.00279522  0.91905964  0.76821126     0.05900
H1320       H  0.99950820  0.95477154  0.79295083     0.09100
H1321       H  0.99462169  0.92589000  0.84001225     0.09100
H1322       H  0.13806625  0.93869130  0.81156350     0.09100
H1323       H  0.13345383  0.94627893  0.88530901     0.09100
H1324       H  0.12451863  0.97110977  0.83344103     0.05900
C1325       C  0.14376872  0.83133724  0.62561824    -0.19900
C1326       C  0.15574302  0.84945855  0.66574531    -0.06500
C1327       C  0.18423945  0.85689817  0.65858725     0.14400
C1328       C  0.20057533  0.84162116  0.62084639    -0.20000
C1329       C  0.18907726  0.82114514  0.58564708    -0.06500
C1330       C  0.16005882  0.81668305  0.58635341     0.14400
C1331       C  0.14602192  0.79714310  0.54531059    -0.23300
H1332       H  0.12145669  0.82938316  0.62272212     0.15700
H1333       H  0.22272858  0.84577085  0.61952079     0.15700
C1334       C  0.19843778  0.88160203  0.68637750    -0.23300
H1335       H  0.12292673  0.79805533  0.54924405     0.05900
H1336       H  0.15247993  0.77515253  0.55255347     0.09100
H1337       H  0.15160663  0.80299013  0.50227318     0.09100
H1338       H  0.21575379  0.87399242  0.71270035     0.09100
H1339       H  0.18447310  0.89522777  0.71148716     0.09100
H1340       H  0.20745994  0.89524378  0.65399764     0.05900
C1341       C  0.30612624  0.84358595  0.29719059    -0.19900
C1342       C  0.33466309  0.84455936  0.30786574    -0.06500
C1343       C  0.34525811  0.82821277  0.35140730     0.14400
C1344       C  0.32907606  0.80622568  0.37069215    -0.20000
C1345       C  0.30151599  0.80228053  0.35221093    -0.06500
C1346       C  0.29002962  0.82129342  0.31420626     0.14400
C1347       C  0.26095926  0.81909855  0.29172472    -0.23300
H1348       H  0.29608060  0.86062221  0.27606182     0.15700
H1349       H  0.33740768  0.79333757  0.40347860     0.15700
C1350       C  0.37176830  0.83493532  0.38250266    -0.23300
H1351       H  0.25658302  0.83508223  0.25978775     0.05900
H1352       H  0.25841588  0.79817209  0.27166781     0.09100
H1353       H  0.24571532  0.82249141  0.32558829     0.09100
H1354       H  0.38272436  0.85355524  0.36663550     0.09100
H1355       H  0.38621373  0.81668634  0.38093663     0.09100
H1356       H  0.36654005  0.83951255  0.42673835     0.05900
C1357       C  0.44691593  0.94458664  0.17580979    -0.19900
C1358       C  0.44282981  0.94791533  0.11904514    -0.06500
C1359       C  0.42173806  0.93253881  0.09133805     0.14400
C1360       C  0.40460797  0.91521812  0.12221445    -0.20000
C1361       C  0.40679132  0.91379552  0.18009618    -0.06500
C1362       C  0.43035224  0.92639377  0.20624024     0.14400
C1363       C  0.44025381  0.92023278  0.26434192    -0.23300
H1364       H  0.46395125  0.95533038  0.19611717     0.15700
H1365       H  0.39045771  0.90170288  0.09998330     0.15700
C1366       C  0.41650221  0.93439149  0.02959974    -0.23300
H1367       H  0.46214606  0.91250152  0.26227698     0.05900
H1368       H  0.42818132  0.90391333  0.28564346     0.09100
H1369       H  0.43977708  0.93973958  0.29017037     0.09100
H1370       H  0.43455465  0.92562459  0.00598478     0.09100
H1371       H  0.41286951  0.95656433  0.01813648     0.09100
H1372       H  0.39781127  0.92227485  0.01659509     0.05900
C1373       C  0.19759100  0.66134313  0.38155965    -0.19900
C1374       C  0.18996680  0.68864263  0.39741282    -0.06500
C1375       C  0.16842241  0.70290121  0.36986274     0.14400
C1376       C  0.15549525  0.68924582  0.32640962    -0.20000
C1377       C  0.15980092  0.66075365  0.31626533    -0.06500
C1378       C  0.18333110  0.64721230  0.34006298     0.14400
C1379       C  0.19532068  0.61922678  0.32051534    -0.23300
H1380       H  0.21537719  0.65119777  0.40052287     0.15700
H1381       H  0.14282933  0.70140613  0.29905548     0.15700
C1382       C  0.15869891  0.73230514  0.38451259    -0.23300
H1383       H  0.21368041  0.61290168  0.34547955     0.05900
H1384       H  0.20289103  0.62090443  0.27748978     0.09100
H1385       H  0.18042008  0.60177440  0.32276429     0.09100
H1386       H  0.17528755  0.74751379  0.37492632     0.09100
H1387       H  0.15284216  0.73374839  0.42916407     0.09100
H1388       H  0.14002522  0.73848212  0.36032790     0.05900
C1389       C  0.06881632  0.60547468  0.14334090    -0.19900
C1390       C  0.08988337  0.59414959  0.17689011    -0.06500
C1391       C  0.09736403  0.56550686  0.16831513     0.14400
C1392       C  0.08019680  0.54856089  0.13570507    -0.20000
C1393       C  0.05670394  0.55952579  0.10932607    -0.06500
C1394       C  0.05109231  0.58838741  0.11214857     0.14400
C1395       C  0.02701455  0.60134847  0.08150055    -0.23300
H1396       H  0.06677797  0.62775403  0.13888581     0.15700
H1397       H  0.08517267  0.52641037  0.13120233     0.15700
C1398       C  0.12359665  0.55181286  0.18982933    -0.23300
H1399       H  0.02692599  0.62458032  0.08565644     0.05900
H1400       H  0.00695233  0.59372561  0.09867898     0.09100
H1401       H  0.02831239  0.59572854  0.03669326     0.09100
H1402       H  0.13578461  0.54302067  0.15420162     0.09100
H1403       H  0.13775416  0.56610865  0.21244990     0.09100
H1404       H  0.11788316  0.53432514  0.21746567     0.05900
C1405       C  0.60589270  0.11323192  0.21603414     0.30400
C1406       C  0.63906019  0.14541339  0.28126767     0.30400
C1407       C  0.63490313  0.12013160  0.19195844    -0.05800
C1408       C  0.59366095  0.14286483  0.23150296    -0.06600
C1409       C  0.61186336  0.10156249  0.27489493    -0.06500
C1410       C  0.65154742  0.13661628  0.22503826    -0.05800
C1411       C  0.61066048  0.15937937  0.26556011    -0.06600
C1412       C  0.62879579  0.11822642  0.30768463    -0.06500
C1413       C  0.67546597  0.14262582  0.19494430    -0.31900
N1414       N  0.67429701  0.12925480  0.14467006     0.14600
C1415       C  0.64936618  0.11552409  0.14242156    -0.31900
H1416       H  0.64206659  0.10336627  0.10705592     0.16600
C1417       C  0.59456162  0.18260457  0.28218321    -0.30800
N1418       N  0.56937643  0.18176292  0.25666269     0.13400
C1419       C  0.56814810  0.15701934  0.22794703    -0.30800
C1420       C  0.63109655  0.10582706  0.35910142    -0.31100
N1421       N  0.61689017  0.08127374  0.35842348     0.13900
H1422       H  0.64325723  0.11358388  0.39383868     0.16500
C1423       C  0.60454286  0.07876681  0.30739117    -0.31100
H1424       H  0.59156218  0.06135164  0.29448215     0.16500
H1425       H  0.54933802  0.14965634  0.20808470     0.16500
H1426       H  0.69235495  0.15609720  0.20839650     0.16600
H1427       H  0.59967615  0.19853662  0.31282601     0.16500
N1428       N  0.99687132  0.21134827  0.25194702    -0.36200
N1429       N  0.53949941  0.25501833  0.26064088    -0.56800
N1430       N  0.99555206  0.29819012  0.24756958    -0.36200
N1431       N  0.95283624  0.25460699  0.24930871    -0.56800
C1432       C  0.51959272  0.19615828  0.26700588     0.27400
C1433       C  0.97384827  0.19597074  0.26378266     0.27400
C1434       C  0.51773479  0.31387993  0.26432334     0.27400
C1435       C  0.97198060  0.31375038  0.25642643     0.27400
C1436       C  0.55582804  0.23217045  0.24961443     0.36000
C1437       C  0.55519066  0.27798325  0.24971856     0.36000
C1438       C  0.93775572  0.23115264  0.23779244     0.36000
C1439       C  0.93709254  0.27687813  0.23354825     0.36000
C1440       C  0.51089674  0.17099983  0.28905804    -0.21500
C1441       C  0.98211190  0.17090548  0.28718688    -0.21500
C1442       C  0.50802794  0.33953897  0.28457640    -0.21500
C1443       C  0.97932975  0.33947108  0.27955005    -0.21500
C1444       C  0.58181443  0.24075657  0.23114514    -0.22600
C1445       C  0.58141338  0.26962120  0.23124899    -0.22600
C1446       C  0.91253110  0.23858943  0.21420728    -0.22600
C1447       C  0.91215687  0.26739852  0.21133425    -0.22600
C1448       C  0.54795587  0.20372431  0.25821932    -0.17900
C1449       C  0.94574339  0.20319967  0.25087249    -0.17900
C1450       C  0.94415408  0.30566326  0.24239128    -0.17900
C1451       C  0.54656137  0.30638352  0.25841789    -0.17900
H1452       H  0.52392607  0.15440430  0.30497061     0.15000
H1453       H  0.96883051  0.15417128  0.30141630     0.15000
H1454       H  0.52029493  0.35662065  0.30152910     0.15000
H1455       H  0.96549810  0.35641516  0.29219498     0.15000
H1456       H  0.59923114  0.22769339  0.21809612     0.13300
H1457       H  0.59843175  0.28283875  0.21815550     0.13300
H1458       H  0.89613718  0.22472650  0.19996673     0.13300
H1459       H  0.89540106  0.27986411  0.19446418     0.13300
H1460       H  0.99720779  0.22974050  0.22934291     0.26500
H1461       H  0.99669383  0.27911045  0.22610378     0.26500
C1462       C  0.85271788  0.36254781  0.27183035     0.30400
C1463       C  0.88594205  0.39625679  0.21123153     0.30400
C1464       C  0.84111486  0.37011001  0.21352658    -0.05800
C1465       C  0.85901324  0.39147026  0.29844411    -0.06600
C1466       C  0.88160531  0.35015084  0.25633298    -0.06500
C1467       C  0.85738889  0.38849647  0.18329351    -0.05800
C1468       C  0.87570909  0.40879201  0.26737788    -0.06600
C1469       C  0.89859335  0.36738184  0.22594246    -0.06500
C1470       C  0.84115792  0.39593372  0.13740787    -0.31900
N1471       N  0.81705912  0.38073330  0.13668981     0.14600
C1472       C  0.81750331  0.36422163  0.18180694    -0.31900
H1473       H  0.80160591  0.34878667  0.18986227     0.16600
C1474       C  0.87815960  0.43387986  0.29711622    -0.30800
N1475       N  0.86394475  0.43205352  0.34611664     0.13400
C1476       C  0.85179106  0.40620052  0.34669901    -0.30800
C1477       C  0.92351861  0.35283437  0.21643428    -0.31100
N1478       N  0.92209267  0.32708111  0.24033855     0.13900
H1479       H  0.94140192  0.36054812  0.19380144     0.16500
C1480       C  0.89622787  0.32526089  0.26383027    -0.31100
H1481       H  0.88860660  0.30702516  0.28509819     0.16500
H1482       H  0.83881527  0.39851117  0.38001930     0.16500
H1483       H  0.84600399  0.41172032  0.10716793     0.16600
H1484       H  0.88983095  0.45206549  0.28437395     0.16500
N1485       N  0.61990381  0.00899122  0.41593325    -0.36200
N1486       N  0.62485853  0.46539527  0.50017460    -0.56800
N1487       N  0.61964311  0.00873785  0.58804351    -0.36200
N1488       N  0.62027071  0.05254148  0.50332084    -0.56800
C1489       C  0.62818933  0.48649521  0.38459672     0.27400
C1490       C  0.62531508  0.03225639  0.38618918     0.27400
C1491       C  0.62641424  0.48575073  0.61808286     0.27400
C1492       C  0.62509856  0.03191028  0.61990895     0.27400
C1493       C  0.61864025  0.44994644  0.45392045     0.36000
C1494       C  0.61812214  0.44945564  0.54453719     0.36000
C1495       C  0.61379530  0.06836837  0.45858778     0.36000
C1496       C  0.61484622  0.06851749  0.54951293     0.36000
C1497       C  0.63929653  0.49556747  0.33487882    -0.21500
C1498       C  0.63765522  0.02443295  0.33605200    -0.21500
C1499       C  0.63637554  0.49448411  0.66946711    -0.21500
C1500       C  0.63556449  0.02344638  0.67060821    -0.21500
C1501       C  0.60743272  0.42452349  0.46904794    -0.22600
C1502       C  0.60737303  0.42403028  0.52622682    -0.22600
C1503       C  0.60416520  0.09440755  0.47660969    -0.22600
C1504       C  0.60489167  0.09453241  0.53385917    -0.22600
C1505       C  0.62405933  0.45800905  0.39821715    -0.17900
C1506       C  0.61799390  0.06020570  0.40173832    -0.17900
C1507       C  0.61970172  0.06041874  0.60558457    -0.17900
C1508       C  0.62244200  0.45714652  0.60131348    -0.17900
H1509       H  0.64770950  0.48273988  0.30122558     0.15000
H1510       H  0.64498689  0.03810961  0.30379320     0.15000
H1511       H  0.64364717  0.48141137  0.70277758     0.15000
H1512       H  0.64213479  0.03671091  0.70498346     0.15000
H1513       H  0.59927259  0.40840803  0.44164521     0.13300
H1514       H  0.59956738  0.40715017  0.55135834     0.13300
H1515       H  0.59719728  0.11157339  0.45126614     0.13300
H1516       H  0.59845655  0.11178857  0.56078248     0.13300
H1517       H  0.60836011  0.00834312  0.45253098     0.26500
H1518       H  0.60931255  0.00851523  0.55025545     0.26500
N1519       N  0.86479744  0.00475607  0.40885384    -0.36200
N1520       N  0.86478638  0.46111843  0.49255559    -0.56800
N1521       N  0.87088339  0.00501385  0.58037791    -0.36200
N1522       N  0.86547645  0.04873600  0.49683186    -0.56800
C1523       C  0.85800368  0.48182406  0.37743775     0.27400
C1524       C  0.85812285  0.02789178  0.37944008     0.27400
C1525       C  0.86462160  0.48190133  0.61029681     0.27400
C1526       C  0.86538458  0.02803508  0.61297153     0.27400
C1527       C  0.86932006  0.44508231  0.44613779     0.36000
C1528       C  0.87203734  0.44521067  0.53651089     0.36000
C1529       C  0.87004445  0.06448206  0.45100063     0.36000
C1530       C  0.87305782  0.06458846  0.54189462     0.36000
C1531       C  0.84654997  0.49056693  0.32786290    -0.21500
C1532       C  0.84661562  0.01951943  0.32912729    -0.21500
C1533       C  0.85471951  0.49045519  0.66215571    -0.21500
C1534       C  0.85521838  0.01938164  0.66382619    -0.21500
C1535       C  0.87960373  0.41906319  0.46088873    -0.22600
C1536       C  0.88129009  0.41914966  0.51788665    -0.22600
C1537       C  0.88067551  0.09032261  0.46722295    -0.22600
C1538       C  0.88259056  0.09037605  0.52433847    -0.22600
C1539       C  0.86351590  0.45328399  0.39072531    -0.17900
C1540       C  0.86406197  0.05626296  0.39480459    -0.17900
C1541       C  0.87027161  0.05657333  0.59876371    -0.17900
C1542       C  0.86903910  0.45330085  0.59335535    -0.17900
H1543       H  0.83902744  0.47746312  0.29403865     0.15000
H1544       H  0.83919604  0.03288555  0.29640055     0.15000
H1545       H  0.84757867  0.47728448  0.69545302     0.15000
H1546       H  0.84846362  0.03248150  0.69850632     0.15000
H1547       H  0.88578954  0.40186511  0.43362001     0.13300
H1548       H  0.88889748  0.40202951  0.54263236     0.13300
H1549       H  0.88691377  0.10733044  0.44078968     0.13300
H1550       H  0.89055975  0.10741478  0.54980930     0.13300
H1551       H  0.87635016  0.00466187  0.44548576     0.26500
H1552       H  0.88100507  0.00496251  0.54190228     0.26500
C1553       C  0.60380744  0.39706768  0.77393447     0.30400
C1554       C  0.63685715  0.36459556  0.70735673     0.30400
C1555       C  0.63087761  0.38601678  0.80189216    -0.05800
C1556       C  0.59050454  0.36922191  0.75371882    -0.06600
C1557       C  0.61375656  0.41068754  0.72012219    -0.06500
C1558       C  0.64798952  0.36954814  0.76781541    -0.05800
C1559       C  0.60713063  0.35232812  0.71951804    -0.06600
C1560       C  0.63041919  0.39432998  0.68637855    -0.06500
C1561       C  0.67116575  0.36235857  0.79989984    -0.31900
N1562       N  0.66888869  0.37425096  0.85198229     0.14600
C1563       C  0.64373444  0.38775357  0.85372123    -0.31900
H1564       H  0.63560416  0.39866853  0.89000160     0.16600
C1565       C  0.59235156  0.32718181  0.71252743    -0.30800
N1566       N  0.56724835  0.32903104  0.73961487     0.13400
C1567       C  0.56654881  0.35428484  0.76633984    -0.30800
C1568       C  0.63597103  0.40979625  0.63907560    -0.31100
N1569       N  0.62279770  0.43520866  0.64321656     0.13900
H1570       H  0.64840235  0.40280694  0.60378815     0.16500
C1571       C  0.60905662  0.43576033  0.69297127    -0.31100
H1572       H  0.59596601  0.45287172  0.70787163     0.16500
H1573       H  0.55006294  0.36083573  0.79462090     0.16500
H1574       H  0.68879249  0.34986799  0.78577562     0.16600
H1575       H  0.59960746  0.30838726  0.69116089     0.16500
N1576       N  0.53654027  0.25678397  0.74808512    -0.36200
N1577       N  0.99395522  0.30093991  0.74468278    -0.56800
N1578       N  0.95026939  0.25792657  0.74677192    -0.36200
N1579       N  0.99297163  0.21409844  0.76004999    -0.56800
C1580       C  0.55231016  0.28003424  0.75703136     0.27400
C1581       C  0.55139163  0.23433079  0.76578529     0.27400
C1582       C  0.93520837  0.28171977  0.75725933     0.27400
C1583       C  0.93483802  0.23572129  0.76386852     0.27400
C1584       C  0.51701844  0.31594085  0.73101028     0.36000
C1585       C  0.97131026  0.31678128  0.73155198     0.36000
C1586       C  0.51561894  0.19770723  0.74918049     0.36000
C1587       C  0.97028220  0.19829426  0.74781465     0.36000
C1588       C  0.57730638  0.27229043  0.78119881    -0.21500
C1589       C  0.57667865  0.24355670  0.78694049    -0.21500
C1590       C  0.91014918  0.27446080  0.78207069    -0.21500
C1591       C  0.90984763  0.24558197  0.78598045    -0.21500
C1592       C  0.50889150  0.34127951  0.70866566    -0.22600
C1593       C  0.98009361  0.34179488  0.70896889    -0.22600
C1594       C  0.50731172  0.17165063  0.72942545    -0.22600
C1595       C  0.97865472  0.17203904  0.72835966    -0.22600
C1596       C  0.54525253  0.30786342  0.74170635    -0.17900
C1597       C  0.54364840  0.20561795  0.75905222    -0.17900
C1598       C  0.94216335  0.20676790  0.75707412    -0.17900
C1599       C  0.94291971  0.30965380  0.74281136    -0.17900
H1600       H  0.59425504  0.28590464  0.79365050     0.15000
H1601       H  0.59308716  0.23090628  0.80456991     0.15000
H1602       H  0.89388664  0.28854130  0.79672708     0.15000
H1603       H  0.89317277  0.23328859  0.80360084     0.15000
H1604       H  0.52227852  0.35775100  0.69364139     0.13300
H1605       H  0.96715246  0.35870029  0.69408735     0.13300
H1606       H  0.52045827  0.15427083  0.71618454     0.13300
H1607       H  0.96560848  0.15496323  0.71402859     0.13300
H1608       H  0.51804866  0.25592140  0.72552075     0.26500
H1609       H  0.96880005  0.25664849  0.72398619     0.26500
C1610       C  0.85376605  0.14667768  0.71706087     0.30400
C1611       C  0.88696298  0.11501412  0.78158209     0.30400
C1612       C  0.86331891  0.11834603  0.69115210    -0.05800
C1613       C  0.88178195  0.16081226  0.73456027    -0.06600
C1614       C  0.84124750  0.13928755  0.77420058    -0.06500
C1615       C  0.87974643  0.10166797  0.72401995    -0.05800
C1616       C  0.89854539  0.14421574  0.76753695    -0.06600
C1617       C  0.85741449  0.12181155  0.80575667    -0.06500
C1618       C  0.88407765  0.07670446  0.69368742    -0.31900
N1619       N  0.87117181  0.07820506  0.64307207     0.14600
C1620       C  0.85835957  0.10373075  0.64184107    -0.31900
H1621       H  0.84559619  0.11099313  0.60796837     0.16600
C1622       C  0.92198597  0.15962761  0.78167825    -0.30800
N1623       N  0.92041083  0.18533233  0.75799031     0.13400
C1624       C  0.89561711  0.18651551  0.73080153    -0.30800
C1625       C  0.84143255  0.11535480  0.85235578    -0.31100
N1626       N  0.81759414  0.13072725  0.85285507     0.13900
H1627       H  0.84636483  0.10034043  0.88403037     0.16500
C1628       C  0.81706171  0.14527390  0.80459823    -0.31100
H1629       H  0.80029801  0.15909694  0.79233838     0.16500
H1630       H  0.88848733  0.20533461  0.71108976     0.16500
H1631       H  0.89557616  0.05862727  0.70776048     0.16600
H1632       H  0.93908786  0.15247380  0.80709056     0.16500
N1633       N  0.74309340  0.37849425  0.08213601    -0.36200
N1634       N  0.78603301  0.38268067  0.99424264    -0.56800
N1635       N  0.74219229  0.37738149  0.90969377    -0.36200
N1636       N  0.69874987  0.37886017  0.99761463    -0.56800
C1637       C  0.76642369  0.38469961  0.11236188     0.27400
C1638       C  0.72025286  0.38434361  0.11471507     0.27400
C1639       C  0.76447525  0.38596610  0.87872209     0.27400
C1640       C  0.71857598  0.38229826  0.87984262     0.27400
C1641       C  0.80257462  0.37715144  0.03833660     0.36000
C1642       C  0.80197666  0.37826980  0.94813916     0.36000
C1643       C  0.68311492  0.37416377  0.04408146     0.36000
C1644       C  0.68285984  0.37172168  0.95266688     0.36000
C1645       C  0.75827565  0.39443409  0.16450116    -0.21500
C1646       C  0.72941702  0.39443986  0.16584695    -0.21500
C1647       C  0.75478270  0.39658223  0.82917562    -0.21500
C1648       C  0.72604154  0.39445166  0.83007824    -0.21500
C1649       C  0.82886869  0.36892253  0.02007750    -0.22600
C1650       C  0.82848730  0.36960380  0.96310114    -0.22600
C1651       C  0.65731363  0.36378700  0.02831448    -0.22600
C1652       C  0.65718953  0.36215210  0.97096465    -0.22600
C1653       C  0.79493651  0.38097509  0.09497731    -0.17900
C1654       C  0.69143944  0.37972631  0.10050721    -0.17900
C1655       C  0.69052136  0.37538854  0.89543200    -0.17900
C1656       C  0.79340260  0.38335885  0.89286178    -0.17900
H1657       H  0.77173181  0.40122313  0.19806451     0.15000
H1658       H  0.71670908  0.40139589  0.20071932     0.15000
H1659       H  0.76709234  0.40538243  0.79599379     0.15000
H1660       H  0.71216245  0.40180972  0.79820826     0.15000
H1661       H  0.84653745  0.36286907  0.04506187     0.13300
H1662       H  0.84576976  0.36402239  0.93597516     0.13300
H1663       H  0.64041709  0.35750987  0.05526963     0.13300
H1664       H  0.64008627  0.35458419  0.94574551     0.13300
H1665       H  0.74292318  0.36863463  0.04403972     0.26500
H1666       H  0.74314558  0.36651149  0.94614783     0.26500
N1667       N  0.74706403  0.13118506  0.08569264    -0.36200
N1668       N  0.70325094  0.13140218  0.00011253    -0.56800
N1669       N  0.74591619  0.13411250  0.91401680    -0.36200
N1670       N  0.78983729  0.12853172  0.99914194    -0.56800
C1671       C  0.72397381  0.12416519  0.11540437     0.27400
C1672       C  0.76986622  0.12340066  0.11543419     0.27400
C1673       C  0.72290506  0.12783678  0.88359572     0.27400
C1674       C  0.76846421  0.12648539  0.88300020     0.27400
C1675       C  0.68758119  0.13653551  0.04624751     0.36000
C1676       C  0.68722209  0.13816852  0.95593224     0.36000
C1677       C  0.80621260  0.13319933  0.04441493     0.36000
C1678       C  0.80538580  0.13478502  0.95361163     0.36000
C1679       C  0.73226978  0.11150290  0.16401058    -0.21500
C1680       C  0.76108648  0.11122639  0.16430164    -0.21500
C1681       C  0.73097138  0.11589355  0.83315602    -0.21500
C1682       C  0.75970646  0.11491972  0.83299188    -0.21500
C1683       C  0.66167140  0.14691449  0.03128638    -0.22600
C1684       C  0.66145229  0.14796676  0.97419341    -0.22600
C1685       C  0.83208631  0.14271041  0.02742412    -0.22600
C1686       C  0.83163356  0.14358305  0.97018644    -0.22600
C1687       C  0.69565238  0.13011347  0.10131832    -0.17900
C1688       C  0.79837697  0.12796538  0.10062854    -0.17900
C1689       C  0.79675044  0.13108346  0.89722792    -0.17900
C1690       C  0.69487731  0.13355435  0.89938256    -0.17900
H1691       H  0.71892217  0.10276293  0.19548510     0.15000
H1692       H  0.77408043  0.10257878  0.19648140     0.15000
H1693       H  0.71757790  0.10825776  0.80019951     0.15000
H1694       H  0.77273691  0.10610050  0.80035891     0.15000
H1695       H  0.64463295  0.15310513  0.05854142     0.13300
H1696       H  0.64422418  0.15510868  0.94913157     0.13300
H1697       H  0.84933402  0.14895304  0.05351703     0.13300
H1698       H  0.84864151  0.15026951  0.94389164     0.13300
H1699       H  0.74724150  0.14312733  0.04994263     0.26500
H1700       H  0.74635131  0.14552756  0.95125165     0.26500
C1701       C  0.88367564  0.40035396  0.77672295     0.30400
C1702       C  0.85098865  0.36558811  0.71531647     0.30400
C1703       C  0.85503446  0.39305829  0.80281731    -0.05800
C1704       C  0.87594506  0.41119707  0.71819223    -0.06600
C1705       C  0.89698944  0.37135775  0.76088074    -0.06500
C1706       C  0.83875046  0.37538370  0.77122425    -0.05800
C1707       C  0.85891309  0.39374987  0.68663849    -0.06600
C1708       C  0.88018451  0.35367085  0.72949054    -0.06500
C1709       C  0.81418496  0.37066861  0.80008245    -0.31900
N1710       N  0.81474691  0.38504123  0.84923879     0.14600
C1711       C  0.83971988  0.39901624  0.85109442    -0.31900
H1712       H  0.84652868  0.41219993  0.88541720     0.16600
C1713       C  0.85583094  0.40687933  0.63533343    -0.30800
N1714       N  0.86972385  0.43171807  0.63576779     0.13400
C1715       C  0.88326687  0.43363762  0.68491079    -0.30800
C1716       C  0.89562412  0.32948094  0.71771313    -0.31100
N1717       N  0.92130380  0.33157010  0.74172067     0.13900
H1718       H  0.88859419  0.31156852  0.69347995     0.16500
C1719       C  0.92245750  0.35743704  0.76686331    -0.31100
H1720       H  0.94065354  0.36557376  0.78789731     0.16500
H1721       H  0.89782543  0.45023437  0.69462848     0.16500
H1722       H  0.79733894  0.35712308  0.78673785     0.16600
H1723       H  0.84492898  0.39898382  0.59921867     0.16500
C1724       C  0.88855191  0.11282594  0.21767008     0.30400
C1725       C  0.85524303  0.14727428  0.28020779     0.30400
C1726       C  0.87866169  0.10051420  0.27440117    -0.05800
C1727       C  0.90118323  0.14132356  0.23478828    -0.06600
C1728       C  0.85997823  0.12056196  0.19092796    -0.06500
C1729       C  0.86158797  0.11821868  0.30618491    -0.05800
C1730       C  0.88427645  0.15868447  0.26628073    -0.06600
C1731       C  0.84297483  0.13807238  0.22315846    -0.06500
C1732       C  0.85299042  0.10309972  0.35237558    -0.31900
N1733       N  0.86516696  0.07730228  0.35119976     0.14600
C1734       C  0.87980586  0.07513153  0.30269823    -0.31900
H1735       H  0.88987516  0.05591925  0.28893470     0.16600
C1736       C  0.89895589  0.18320009  0.27669089    -0.30800
N1737       N  0.92444732  0.18137247  0.25151044     0.13400
C1738       C  0.92597640  0.15565274  0.22595362    -0.30800
C1739       C  0.81820442  0.14160016  0.19408731    -0.31100
N1740       N  0.81976121  0.12764276  0.14421117     0.13900
H1741       H  0.80024007  0.15356669  0.20823616     0.16500
C1742       C  0.84508176  0.11424970  0.14258077    -0.31100
H1743       H  0.85214349  0.10072974  0.10877138     0.16500
H1744       H  0.94363263  0.14808319  0.20173777     0.16500
H1745       H  0.83848185  0.10997982  0.38439135     0.16600
H1746       H  0.89146456  0.20120341  0.30043559     0.16500
C1747       C  0.63444843  0.15106260  0.72567202     0.30400
C1748       C  0.60439652  0.11653108  0.79072002     0.30400
C1749       C  0.64874177  0.14232749  0.78000351    -0.05800
C1750       C  0.60563396  0.16196142  0.74364085    -0.06600
C1751       C  0.62755743  0.12199151  0.69835534    -0.06500
C1752       C  0.63314476  0.12509490  0.81296717    -0.05800
C1753       C  0.58990829  0.14469369  0.77675554    -0.06600
C1754       C  0.61127326  0.10466215  0.73117920    -0.06500
C1755       C  0.64857771  0.11954776  0.85994795    -0.31900
N1756       N  0.67331054  0.13327678  0.85694044     0.14600
C1757       C  0.67383584  0.14685790  0.80751706    -0.31900
H1758       H  0.69108731  0.15938072  0.79299446     0.16600
C1759       C  0.56467181  0.15875538  0.78589159    -0.30800
N1760       N  0.56529234  0.18404034  0.75979271     0.13400
C1761       C  0.59020815  0.18571322  0.73314157    -0.30800
C1762       C  0.60552494  0.08077112  0.69910249    -0.31100
N1763       N  0.61943567  0.08197844  0.64970392     0.13900
H1764       H  0.59214291  0.06359503  0.71073104     0.16500
C1765       C  0.63334857  0.10685016  0.64945338    -0.31100
H1766       H  0.64718415  0.11298350  0.61624039     0.16500
H1767       H  0.59665721  0.20299348  0.70753118     0.16500
H1768       H  0.64219423  0.10649624  0.89405956     0.16600
H1769       H  0.54714942  0.15113645  0.80966660     0.16500
C1770       C  0.63619786  0.36544176  0.28591601     0.30400
C1771       C  0.60201867  0.39669821  0.22360142     0.30400
C1772       C  0.64764345  0.37207940  0.22646351    -0.05800
C1773       C  0.60726894  0.35274000  0.27474691    -0.06600
C1774       C  0.63027677  0.39522117  0.30952046    -0.06500
C1775       C  0.63021240  0.38853827  0.19443990    -0.05800
C1776       C  0.59010734  0.36865802  0.24272521    -0.06600
C1777       C  0.61255357  0.41122651  0.27810005    -0.06500
C1778       C  0.64471875  0.39368060  0.14494805    -0.31900
N1779       N  0.67007254  0.38023854  0.14509498     0.14600
C1780       C  0.67193458  0.36732298  0.19522975    -0.31900
H1781       H  0.68999039  0.35551984  0.20835349     0.16600
C1782       C  0.56590469  0.35349347  0.23349000    -0.30800
N1783       N  0.56763056  0.32855229  0.25999847     0.13400
C1784       C  0.59301983  0.32805020  0.28575355    -0.30800
C1785       C  0.60981250  0.43706288  0.30592061    -0.31100
N1786       N  0.62464809  0.43667583  0.35396155     0.13900
H1787       H  0.59760817  0.45488285  0.29283483     0.16500
C1788       C  0.63825276  0.41164552  0.35504584    -0.31100
H1789       H  0.65284780  0.40592147  0.38703034     0.16500
H1790       H  0.60084573  0.31081434  0.30995316     0.16500
H1791       H  0.63747243  0.40669724  0.11156749     0.16600
H1792       H  0.54857525  0.35989342  0.20788385     0.16500
O1793       O  0.51285171  0.04126620  0.08244182    -0.79800
O1794       O  0.97225830  0.05152870  0.93793062    -0.79800
O1795       O  0.55625602  0.01377091  0.94467031    -0.79800
O1796       O  0.94381673  0.02128446  0.05423855    -0.79700
O1797       O  0.52617572  0.04746369  0.94258869    -0.79900
O1798       O  0.98425018  0.03775660  0.08732997    -0.79800
O1799       O  0.93784097  0.02189330  0.94355208    -0.79800
O1800       O  0.55035024  0.01890111  0.05408306    -0.79800
C1801       C  0.53914275  0.03996678  0.07872173     1.09900
C1802       C  0.94734315  0.04552884  0.92994504     1.09800
C1803       C  0.55053730  0.03908661  0.93506425     1.10000
C1804       C  0.95772089  0.03921453  0.08296015     1.09800
O1805       O  0.97206380  0.48795719  0.11050306    -0.79800
O1806       O  0.52361413  0.49370889  0.87897236    -0.79800
O1807       O  0.52339478  0.46391530  0.05984818    -0.79800
O1808       O  0.96557509  0.46748948  0.93536283    -0.79700
O1809       O  0.96813016  0.49922040  0.87238234    -0.79800
O1810       O  0.52124075  0.49253444  0.13326854    -0.79800
O1811       O  0.96662638  0.46236813  0.03944512    -0.79700
O1812       O  0.52393717  0.46221204  0.94481600    -0.79800
Co1813     Co  0.00399106  0.00265822  0.06548892     1.51500
Co1814     Co  0.99771730  0.02293368  0.91196045     1.51700
Co1815     Co  0.53497302  0.99024089  0.99937279     1.51600
Co1816     Co  0.95539663  0.99345775  0.99341046     1.51500
O1817       O  0.99461321  0.00737940  0.98911258    -1.41700
C1818       C  0.96149122  0.46650892  0.08922950     1.09900
C1819       C  0.52866039  0.46902944  0.89560184     1.10000
C1820       C  0.52766379  0.46872966  0.11180471     1.09900
C1821       C  0.96031638  0.47504773  0.88745864     1.09900
O1822       O  0.78365269  0.21750985  0.46858227    -0.79800
O1823       O  0.78745983  0.28726797  0.54642568    -0.79800
O1824       O  0.75977846  0.27664566  0.37116589    -0.79800
O1825       O  0.77027875  0.23199990  0.58932044    -0.79700
O1826       O  0.79004823  0.28403479  0.43717752    -0.79900
O1827       O  0.76198222  0.19159814  0.55185521    -0.79800
O1828       O  0.75477328  0.28395486  0.60852395    -0.79800
O1829       O  0.76030561  0.22228127  0.39120952    -0.79800
C1830       C  0.78243136  0.21515409  0.41652187     1.09900
C1831       C  0.77862791  0.29226365  0.59438807     1.09800
C1832       C  0.78358587  0.28512402  0.38698061     1.10000
C1833       C  0.77436774  0.20571793  0.58698818     1.09800
O1834       O  0.71323109  0.21478140  0.55535978    -0.79800
O1835       O  0.73721325  0.31380682  0.42829752    -0.79800
O1836       O  0.70496513  0.22815868  0.44707703    -0.79800
O1837       O  0.70404140  0.27771685  0.54789448    -0.79700
O1838       O  0.73212095  0.31382658  0.53902249    -0.79800
O1839       O  0.73021792  0.19180108  0.45051552    -0.79800
O1840       O  0.71861461  0.24255858  0.62955530    -0.79700
O1841       O  0.70587484  0.28096166  0.42939782    -0.79800
Co1842     Co  0.74692662  0.21735909  0.50255943     1.51500
Co1843     Co  0.76198740  0.29803342  0.48819017     1.51700
Co1844     Co  0.73274430  0.25224383  0.41320678     1.51600
Co1845     Co  0.73612777  0.25385903  0.56449577     1.51500
O1846       O  0.74879502  0.25864829  0.48866457    -1.41700
C1847       C  0.70589234  0.22286981  0.60459469     1.09900
C1848       C  0.71314911  0.30478288  0.41597853     1.10000
C1849       C  0.70819886  0.20289209  0.43518393     1.09900
C1850       C  0.70857834  0.30367153  0.55297777     1.09900
C1851       C  0.55413417  0.42504530  0.11243993    -0.19900
C1852       C  0.54110598  0.44685417  0.14318076    -0.06500
C1853       C  0.54329784  0.44773538  0.20132937     0.14400
C1854       C  0.56107508  0.42866020  0.22571258    -0.20000
C1855       C  0.57977827  0.41229938  0.19342024    -0.06500
C1856       C  0.57289128  0.40700323  0.13730717     0.14400
C1857       C  0.58281395  0.38200639  0.10322394    -0.23300
H1858       H  0.55045069  0.42236937  0.06825956     0.15700
H1859       H  0.56083489  0.42724166  0.27044092     0.15700
C1860       C  0.52809400  0.46877355  0.23808776    -0.23300
H1861       H  0.56440555  0.37048606  0.08691922     0.05900
H1862       H  0.59491286  0.36664023  0.12717021     0.09100
H1863       H  0.59541969  0.38912487  0.06736335     0.09100
H1864       H  0.50541845  0.46797726  0.23009000     0.09100
H1865       H  0.53600699  0.49020980  0.23051171     0.09100
H1866       H  0.53129999  0.46459484  0.28287232     0.05900
C1867       C  0.66905386  0.32584003  0.29628178    -0.19900
C1868       C  0.65353884  0.34721053  0.32181182    -0.06500
C1869       C  0.65282301  0.34853659  0.38063815     0.14400
C1870       C  0.67539682  0.33773813  0.40921976    -0.20000
C1871       C  0.69411815  0.31992568  0.38169954    -0.06500
C1872       C  0.68847443  0.31096183  0.32636505     0.14400
C1873       C  0.70075042  0.28526344  0.29819223    -0.23300
H1874       H  0.66531427  0.32000234  0.25327767     0.15700
H1875       H  0.67660824  0.34059037  0.45397055     0.15700
C1876       C  0.62745967  0.35672635  0.41448821    -0.23300
H1877       H  0.68364980  0.27059465  0.28701412     0.05900
H1878       H  0.71132962  0.29121088  0.25908171     0.09100
H1879       H  0.71550627  0.27377116  0.32441881     0.09100
H1880       H  0.62015465  0.33818431  0.43767456     0.09100
H1881       H  0.60972317  0.36374891  0.38884176     0.09100
H1882       H  0.63307059  0.37313958  0.44552154     0.05900
C1883       C  0.67840903  0.21429821  0.68834631    -0.19900
C1884       C  0.68290896  0.20864341  0.63184663    -0.06500
C1885       C  0.66611126  0.18858938  0.60389364     0.14400
C1886       C  0.64911417  0.17151465  0.63541840    -0.20000
C1887       C  0.64945228  0.17310004  0.69342349    -0.10100
C1888       C  0.66080387  0.19753908  0.71929074     0.14400
C1889       C  0.65461175  0.20756177  0.77803743    -0.23300
H1890       H  0.68907204  0.23152600  0.70905820     0.15700
H1891       H  0.63524683  0.15725039  0.61424855     0.15700
C1892       C  0.66571347  0.18454532  0.54154908    -0.23300
H1893       H  0.64586892  0.22915016  0.77687975     0.05900
H1894       H  0.67418899  0.20821061  0.80250153     0.09100
H1895       H  0.63920861  0.19476140  0.80037927     0.09100
H1896       H  0.68567927  0.17508125  0.52703280     0.09100
H1897       H  0.66188302  0.20494488  0.52130919     0.09100
H1898       H  0.64897143  0.16998027  0.52785187     0.05900
C1899       C  0.59780372  0.06850660  0.82680575    -0.19900
C1900       C  0.59103030  0.09712366  0.83192555    -0.06500
C1901       C  0.57870625  0.10652098  0.88286365     0.14400
C1902       C  0.56673620  0.08674216  0.91767255    -0.20000
C1903       C  0.56960546  0.05795409  0.90661165    -0.06500
C1904       C  0.58672088  0.04877230  0.86234275     0.14400
C1905       C  0.59273923  0.01841968  0.85050956    -0.23300
H1906       H  0.61256147  0.06128517  0.79572374     0.15700
H1907       H  0.55516033  0.09386041  0.95404501     0.15700
C1908       C  0.57957632  0.13628390  0.90517786    -0.23300
H1909       H  0.60663822  0.01544334  0.81380250     0.05900
H1910       H  0.57301790  0.00735457  0.84113187     0.09100
H1911       H  0.60328182  0.00932157  0.88698649     0.09100
H1912       H  0.55813191  0.14513758  0.90739875     0.09100
H1913       H  0.59323114  0.15027509  0.88127910     0.09100
H1914       H  0.58830332  0.13630299  0.94785839     0.05900
C1915       C  0.92477040  0.07462844  0.20695622    -0.19900
C1916       C  0.90895215  0.09580313  0.18207578    -0.06500
C1917       C  0.91543000  0.10251594  0.12610175     0.14400
C1918       C  0.93209833  0.08390286  0.09456259    -0.20000
C1919       C  0.94279021  0.05954389  0.11789713    -0.06500
C1920       C  0.94027096  0.05544511  0.17534744     0.14400
C1921       C  0.95342769  0.03072737  0.20360459    -0.23300
H1922       H  0.92602748  0.07339437  0.25140189     0.15700
H1923       H  0.93747822  0.08871533  0.05210194     0.15700
C1924       C  0.90688345  0.12956233  0.09905556    -0.23300
H1925       H  0.94972610  0.03133759  0.24919767     0.05900
H1926       H  0.97632901  0.03052068  0.19642390     0.09100
H1927       H  0.94407764  0.01106162  0.18720624     0.09100
H1928       H  0.89641957  0.14475694  0.12729546     0.09100
H1929       H  0.89242230  0.12513345  0.06450380     0.09100
H1930       H  0.92568594  0.14016626  0.08250775     0.05900
C1931       C  0.80708783  0.20739704  0.32806162    -0.19900
C1932       C  0.80495686  0.20158506  0.38482948    -0.06500
C1933       C  0.82314833  0.18174250  0.40836640     0.14400
C1934       C  0.84081598  0.16647094  0.37325452    -0.20000
C1935       C  0.83887937  0.16825198  0.31528757    -0.06500
C1936       C  0.82501257  0.19194750  0.29332716     0.14400
C1937       C  0.82983137  0.20310157  0.23576292    -0.23300
H1938       H  0.79486699  0.22430928  0.31070861     0.15700
H1939       H  0.85628035  0.15304931  0.39169428     0.15700
C1940       C  0.82360677  0.17538127  0.46951430    -0.23300
H1941       H  0.83678147  0.22525310  0.23920817     0.05900
H1942       H  0.81010277  0.20256880  0.21179239     0.09100
H1943       H  0.84631430  0.19176180  0.21216475     0.09100
H1944       H  0.80271261  0.16828309  0.48335928     0.09100
H1945       H  0.82999413  0.19430406  0.49326490     0.09100
H1946       H  0.83870836  0.15844463  0.47930875     0.05900
C1947       C  0.81402297  0.35645675  0.64528650    -0.19900
C1948       C  0.83103368  0.34572917  0.68692974    -0.06500
C1949       C  0.82544771  0.31812943  0.70614991     0.14400
C1950       C  0.80703924  0.30118684  0.67614978    -0.20000
C1951       C  0.79420578  0.31124878  0.62876104    -0.06500
C1952       C  0.79757947  0.33922483  0.61279257     0.14400
C1953       C  0.78397398  0.35151811  0.56215610    -0.23300
H1954       H  0.81198435  0.37861964  0.63962993     0.15700
H1955       H  0.80298743  0.27995248  0.68938243     0.15700
C1956       C  0.83667514  0.30590445  0.75900335    -0.23300
H1957       H  0.79095673  0.37335495  0.55497017     0.05900
H1958       H  0.76117285  0.35239472  0.56781260     0.09100
H1959       H  0.78946871  0.33910678  0.52426861     0.09100
H1960       H  0.81893630  0.29949257  0.78574054     0.09100
H1961       H  0.84929677  0.32054438  0.78428205     0.09100
H1962       H  0.84938696  0.28699446  0.74872447     0.05900
C1963       C  0.89974932  0.44914811  0.80218306    -0.19900
C1964       C  0.90095449  0.42018947  0.81210085    -0.06500
C1965       C  0.91848323  0.41088484  0.85487283     0.14400
C1966       C  0.93949409  0.42866605  0.87357677    -0.20000
C1967       C  0.94136158  0.45671360  0.85597151    -0.06500
C1968       C  0.92052700  0.46732592  0.82096345     0.14400
C1969       C  0.91911762  0.49769875  0.80494129    -0.23300
H1970       H  0.88226580  0.45779298  0.77995309     0.15700
H1971       H  0.95365711  0.42083359  0.90478550     0.15700
C1972       C  0.91410010  0.38391510  0.88570481    -0.23300
H1973       H  0.90146189  0.00190187  0.77645354     0.05900
H1974       H  0.93863180  0.00368280  0.78320764     0.09100
H1975       H  0.91601994  0.01100405  0.84261554     0.09100
H1976       H  0.93308828  0.37055857  0.88293188     0.09100
H1977       H  0.89590877  0.37179742  0.87070602     0.09100
H1978       H  0.91012372  0.38893288  0.93025283     0.05900
C1979       C  0.94256789  0.06594223  0.83881727    -0.19900
C1980       C  0.93209515  0.06326557  0.89307515    -0.06500
C1981       C  0.91075911  0.08079465  0.91246494     0.14400
C1982       C  0.90066887  0.10089002  0.87709808    -0.20000
C1983       C  0.90602644  0.09920895  0.81974541    -0.06500
C1984       C  0.92992676  0.08410362  0.80158710     0.14400
C1985       C  0.94408616  0.08813523  0.74622641    -0.23300
H1986       H  0.96080906  0.05396225  0.82566785     0.15700
H1987       H  0.88818084  0.11765648  0.89490272     0.15700
C1988       C  0.89826077  0.07918875  0.96954866    -0.23300
H1989       H  0.96599977  0.09476211  0.75326856     0.05900
H1990       H  0.93423746  0.10459366  0.72102800     0.09100
H1991       H  0.94434979  0.06806814  0.72219581     0.09100
H1992       H  0.90163293  0.09947783  0.99101701     0.09100
H1993       H  0.90719662  0.06204934  0.99442971     0.09100
H1994       H  0.87545329  0.07551439  0.96625054     0.05900
C1995       C  0.78735722  0.16516940  0.63987675    -0.19900
C1996       C  0.79445882  0.19165801  0.62051515    -0.06500
C1997       C  0.82164424  0.20177944  0.62543089     0.14400
C1998       C  0.84109949  0.18542553  0.65247890    -0.20000
C1999       C  0.83326751  0.16100239  0.68000390    -0.06500
C2000       C  0.80631557  0.14947608  0.66968238     0.14400
C2001       C  0.79629452  0.12083548  0.68727265    -0.23300
H2002       H  0.76669388  0.15674744  0.63198452     0.15700
H2003       H  0.86250921  0.19125797  0.64896653     0.15700
C2004       C  0.83038607  0.22939094  0.60125230    -0.23300
H2005       H  0.79119816  0.10804887  0.64972655     0.05900
H2006       H  0.77696805  0.12338927  0.71237192     0.09100
H2007       H  0.81126940  0.10849937  0.71155499     0.09100
H2008       H  0.81865884  0.24662668  0.62212752     0.09100
H2009       H  0.82601969  0.22985754  0.55613352     0.09100
H2010       H  0.85295648  0.23351040  0.60743127     0.05900
C2011       C  0.55631223  0.41750073  0.79042722    -0.19900
C2012       C  0.58474646  0.41677914  0.80563078    -0.06500
C2013       C  0.59466796  0.43796220  0.84228182     0.14400
C2014       C  0.57531241  0.45250846  0.87493152    -0.20000
C2015       C  0.54683388  0.45099142  0.86315598    -0.06500
C2016       C  0.53713617  0.43422469  0.81930467     0.14400
C2017       C  0.50676461  0.43345646  0.80403909    -0.23300
H2018       H  0.54897622  0.40540653  0.75506688     0.15700
H2019       H  0.58259030  0.46670138  0.90727995     0.15700
C2020       C  0.62435424  0.44857809  0.84332891    -0.23300
H2021       H  0.50279622  0.41906106  0.76820846     0.05900
H2022       H  0.49950972  0.45477267  0.79294986     0.09100
H2023       H  0.49462183  0.42589057  0.84000939     0.09100
H2024       H  0.63806683  0.43869053  0.81156446     0.09100
H2025       H  0.63345443  0.44627810  0.88530998     0.09100
H2026       H  0.62451924  0.47110897  0.83344206     0.05900
C2027       C  0.64376891  0.33133726  0.62561808    -0.19900
C2028       C  0.65574324  0.34945834  0.66574549    -0.06500
C2029       C  0.68423968  0.35689795  0.65858769     0.14400
C2030       C  0.70057555  0.34162108  0.62084665    -0.20000
C2031       C  0.68907746  0.32114512  0.58564726    -0.06500
C2032       C  0.66005903  0.31668305  0.58635339     0.14400
C2033       C  0.64602218  0.29714301  0.54531069    -0.23300
H2034       H  0.62145689  0.32938332  0.62272169     0.15700
H2035       H  0.72272882  0.34577074  0.61952115     0.15700
C2036       C  0.69843808  0.38160160  0.68637855    -0.23300
H2037       H  0.62292699  0.29805529  0.54924398     0.05900
H2038       H  0.65248014  0.27515245  0.55255390     0.09100
H2039       H  0.65160699  0.30298990  0.50227324     0.09100
H2040       H  0.71575397  0.37399176  0.71270143     0.09100
H2041       H  0.68447340  0.39522731  0.71148828     0.09100
H2042       H  0.70746041  0.39524347  0.65399907     0.05900
C2043       C  0.80612598  0.34358547  0.29719006    -0.19900
C2044       C  0.83466273  0.34455945  0.30786616    -0.06500
C2045       C  0.84525765  0.32821333  0.35140851     0.14400
C2046       C  0.82907573  0.30622622  0.37069362    -0.20000
C2047       C  0.80151589  0.30228045  0.35221153    -0.06500
C2048       C  0.79002958  0.32129277  0.31420573     0.14400
C2049       C  0.76095943  0.31909724  0.29172327    -0.23300
H2050       H  0.79608018  0.36062151  0.27606098     0.15700
H2051       H  0.83740731  0.29333849  0.40348071     0.15700
C2052       C  0.87176771  0.33493622  0.38250406    -0.23300
H2053       H  0.75658330  0.33508045  0.25978531     0.05900
H2054       H  0.75841637  0.29817050  0.27166734     0.09100
H2055       H  0.74571519  0.32249039  0.32558626     0.09100
H2056       H  0.88272389  0.35355593  0.36663631     0.09100
H2057       H  0.88621313  0.31668722  0.38093900     0.09100
H2058       H  0.86653927  0.33951392  0.42673949     0.05900
C2059       C  0.94691569  0.44458669  0.17580951    -0.19900
C2060       C  0.94282950  0.44791518  0.11904481    -0.06500
C2061       C  0.92173801  0.43253822  0.09133789     0.14400
C2062       C  0.90460816  0.41521740  0.12221454    -0.20000
C2063       C  0.90679145  0.41379513  0.18009634    -0.06500
C2064       C  0.93035227  0.42639366  0.20624015     0.14400
C2065       C  0.94025407  0.42023274  0.26434168    -0.23300
H2066       H  0.96395092  0.45533068  0.19611675     0.15700
H2067       H  0.89045807  0.40170187  0.09998360     0.15700
C2068       C  0.91650219  0.43439052  0.02959951    -0.23300
H2069       H  0.96214631  0.41250147  0.26227639     0.05900
H2070       H  0.92818163  0.40391331  0.28564342     0.09100
H2071       H  0.93977745  0.43973955  0.29017009     0.09100
H2072       H  0.93455484  0.42562395  0.00598476     0.09100
H2073       H  0.91286898  0.45656323  0.01813590     0.09100
H2074       H  0.89781155  0.42227339  0.01659497     0.05900
C2075       C  0.69759117  0.16134311  0.38155997    -0.19900
C2076       C  0.68996677  0.18864254  0.39741330    -0.06500
C2077       C  0.66842234  0.20290105  0.36986320     0.14400
C2078       C  0.65549544  0.18924572  0.32640975    -0.20000
C2079       C  0.65980124  0.16075358  0.31626538    -0.06500
C2080       C  0.68333141  0.14721226  0.34006316     0.14400
C2081       C  0.69532101  0.11922669  0.32051574    -0.23300
H2082       H  0.71537737  0.15119779  0.40052329     0.15700
H2083       H  0.64282950  0.20140602  0.29905560     0.15700
C2084       C  0.65869848  0.23230481  0.38451352    -0.23300
H2085       H  0.71368099  0.11290186  0.34547950     0.05900
H2086       H  0.70289096  0.12090406  0.27748986     0.09100
H2087       H  0.68042053  0.10177424  0.32276573     0.09100
H2088       H  0.67528693  0.24751373  0.37492757     0.09100
H2089       H  0.65284169  0.23374778  0.42916500     0.09100
H2090       H  0.64002472  0.23848164  0.36032891     0.05900
C2091       C  0.56881697  0.10547493  0.14334019    -0.19900
C2092       C  0.58988399  0.09414971  0.17688927    -0.06500
C2093       C  0.59736456  0.06550697  0.16831407     0.14400
C2094       C  0.58019728  0.04856112  0.13570382    -0.20000
C2095       C  0.55670433  0.05952610  0.10932525    -0.06500
C2096       C  0.55109279  0.08838775  0.11214804     0.14400
C2097       C  0.52701478  0.10134889  0.08150093    -0.23300
H2098       H  0.56677856  0.12775432  0.13888558     0.15700
H2099       H  0.58517308  0.02641060  0.13120090     0.15700
C2100       C  0.62359701  0.05181278  0.18982857    -0.23300
H2101       H  0.52692630  0.12458073  0.08565693     0.05900
H2102       H  0.50695271  0.09372603  0.09868008     0.09100
H2103       H  0.52831220  0.09572900  0.03669358     0.09100
H2104       H  0.63578497  0.04302038  0.15420106     0.09100
H2105       H  0.63775458  0.06610853  0.21244911     0.09100
H2106       H  0.61788329  0.03432518  0.21746504     0.05900
C2107       C  0.60589219  0.61323189  0.21603452     0.30400
C2108       C  0.63905982  0.64541344  0.28126763     0.30400
C2109       C  0.63490262  0.62013143  0.19195861    -0.05800
C2110       C  0.59366057  0.64286486  0.23150297    -0.06600
C2111       C  0.61186286  0.60156258  0.27489540    -0.06500
C2112       C  0.65154699  0.63661611  0.22503825    -0.05800
C2113       C  0.61066016  0.65937949  0.26555982    -0.06600
C2114       C  0.62879534  0.61822653  0.30768494    -0.06500
C2115       C  0.67546551  0.64262555  0.19494410    -0.31900
N2116       N  0.67429649  0.62925446  0.14466994     0.14600
C2117       C  0.64936560  0.61552381  0.14242166    -0.31900
H2118       H  0.64206592  0.60336596  0.10705611     0.16600
C2119       C  0.59456149  0.68260503  0.28218179    -0.30800
N2120       N  0.56937635  0.68176332  0.25666108     0.13400
C2121       C  0.56814789  0.65701954  0.22794624    -0.30800
C2122       C  0.63109638  0.60582700  0.35910160    -0.31100
N2123       N  0.61689011  0.58127359  0.35842366     0.13900
H2124       H  0.64325720  0.61358377  0.39383871     0.16500
C2125       C  0.60454263  0.57876676  0.30739152    -0.31100
H2126       H  0.59156201  0.56135154  0.29448250     0.16500
H2127       H  0.54933778  0.64965654  0.20808404     0.16500
H2128       H  0.69235451  0.65609695  0.20839612     0.16600
H2129       H  0.59967607  0.69853734  0.31282401     0.16500
N2130       N  0.99687113  0.71134865  0.25194477    -0.36200
N2131       N  0.53949947  0.75501865  0.26063875    -0.56800
N2132       N  0.99555223  0.79819037  0.24756641    -0.36200
N2133       N  0.95283623  0.75460722  0.24930610    -0.56800
C2134       C  0.51959265  0.69615863  0.26700376     0.27400
C2135       C  0.97384811  0.69597105  0.26378083     0.27400
C2136       C  0.51773493  0.81388012  0.26432114     0.27400
C2137       C  0.97198072  0.81375061  0.25642332     0.27400
C2138       C  0.55582798  0.73217076  0.24961193     0.36000
C2139       C  0.55519079  0.77798353  0.24971659     0.36000
C2140       C  0.93775550  0.73115289  0.23779083     0.36000
C2141       C  0.93709259  0.77687835  0.23354541     0.36000
C2142       C  0.51089672  0.67100020  0.28905612    -0.21500
C2143       C  0.98211181  0.67090585  0.28718512    -0.21500
C2144       C  0.50802797  0.83953904  0.28457456    -0.21500
C2145       C  0.97932978  0.83947120  0.27954759    -0.21500
C2146       C  0.58181435  0.74075682  0.23114239    -0.22600
C2147       C  0.58141344  0.76962146  0.23124667    -0.22600
C2148       C  0.91253079  0.73858966  0.21420604    -0.22600
C2149       C  0.91215675  0.76739873  0.21133215    -0.22600
C2150       C  0.54795580  0.70372469  0.25821716    -0.17900
C2151       C  0.94574315  0.70319995  0.25087116    -0.17900
C2152       C  0.94415420  0.80566349  0.24238819    -0.17900
C2153       C  0.54656155  0.80638375  0.25841633    -0.17900
H2154       H  0.52392608  0.65440474  0.30496884     0.15000
H2155       H  0.96883047  0.65417167  0.30141485     0.15000
H2156       H  0.52029486  0.85662060  0.30152805     0.15000
H2157       H  0.96549807  0.85641517  0.29219284     0.15000
H2158       H  0.59923097  0.72769358  0.21809309     0.13300
H2159       H  0.59843182  0.78283902  0.21815322     0.13300
H2160       H  0.89613669  0.72472674  0.19996629     0.13300
H2161       H  0.89540091  0.77986431  0.19446217     0.13300
H2162       H  0.99720758  0.72974053  0.22934099     0.26500
H2163       H  0.99669404  0.77911099  0.22610060     0.26500
C2164       C  0.85271809  0.86254787  0.27182995     0.30400
C2165       C  0.88594192  0.89625711  0.21123109     0.30400
C2166       C  0.84111487  0.87011013  0.21352637    -0.05800
C2167       C  0.85901336  0.89147030  0.29844388    -0.06600
C2168       C  0.88160552  0.85015103  0.25633210    -0.06500
C2169       C  0.85738874  0.88849671  0.18329323    -0.05800
C2170       C  0.87570901  0.90879220  0.26737762    -0.06600
C2171       C  0.89859337  0.86738216  0.22594151    -0.06500
C2172       C  0.84115766  0.89593384  0.13740765    -0.31900
N2173       N  0.81705895  0.88073327  0.13668973     0.14600
C2174       C  0.81750326  0.86422167  0.18180697    -0.31900
H2175       H  0.80160589  0.84878671  0.18986266     0.16600
C2176       C  0.87815926  0.93388011  0.29711593    -0.30800
N2177       N  0.86394441  0.93205366  0.34611635     0.13400
C2178       C  0.85179100  0.90620053  0.34669871    -0.30800
C2179       C  0.92351856  0.85283470  0.21643234    -0.31100
N2180       N  0.92209275  0.82708132  0.24033614     0.13900
H2181       H  0.94140171  0.86054852  0.19379914     0.16500
C2182       C  0.89622810  0.82526102  0.26382848    -0.31100
H2183       H  0.88860692  0.80702517  0.28509613     0.16500
H2184       H  0.83881523  0.89851107  0.38001893     0.16500
H2185       H  0.84600358  0.91172044  0.10716764     0.16600
H2186       H  0.88983042  0.95206585  0.28437359     0.16500
N2187       N  0.61990324  0.50899101  0.41593340    -0.36200
N2188       N  0.62485894  0.96539548  0.50017408    -0.56800
N2189       N  0.61964350  0.50873757  0.58804385    -0.36200
N2190       N  0.62027073  0.55254120  0.50332097    -0.56800
C2191       C  0.62818988  0.98649549  0.38459628     0.27400
C2192       C  0.62531479  0.53225613  0.38618940     0.27400
C2193       C  0.62641387  0.98575099  0.61808245     0.27400
C2194       C  0.62509894  0.53191003  0.61990918     0.27400
C2195       C  0.61864072  0.94994670  0.45391982     0.36000
C2196       C  0.61812204  0.94945599  0.54453655     0.36000
C2197       C  0.61379528  0.56836813  0.45858797     0.36000
C2198       C  0.61484632  0.56851719  0.54951313     0.36000
C2199       C  0.63929679  0.99556785  0.33487820    -0.21500
C2200       C  0.63765510  0.52443259  0.33605245    -0.21500
C2201       C  0.63637512  0.99448432  0.66946676    -0.21500
C2202       C  0.63556491  0.52344618  0.67060845    -0.21500
C2203       C  0.60743275  0.92452392  0.46904711    -0.22600
C2204       C  0.60737266  0.92403078  0.52622600    -0.22600
C2205       C  0.60416521  0.59440730  0.47660997    -0.22600
C2206       C  0.60489175  0.59453212  0.53385944    -0.22600
C2207       C  0.62405998  0.95800929  0.39821659    -0.17900
C2208       C  0.61799382  0.56020551  0.40173849    -0.17900
C2209       C  0.61970196  0.56041847  0.60558475    -0.17900
C2210       C  0.62244172  0.95714680  0.60131289    -0.17900
H2211       H  0.64770960  0.98274034  0.30122469     0.15000
H2212       H  0.64498701  0.53810920  0.30379376     0.15000
H2213       H  0.64364677  0.98141156  0.70277716     0.15000
H2214       H  0.64213517  0.53671074  0.70498368     0.15000
H2215       H  0.59927255  0.90840856  0.44164422     0.13300
H2216       H  0.59956658  0.90715083  0.55135744     0.13300
H2217       H  0.59719728  0.61157315  0.45126649     0.13300
H2218       H  0.59845667  0.61178828  0.56078279     0.13300
H2219       H  0.60835932  0.50834298  0.45253124     0.26500
H2220       H  0.60931288  0.50851495  0.55025581     0.26500
N2221       N  0.86479808  0.50475594  0.40885363    -0.36200
N2222       N  0.86478577  0.96111850  0.49255552    -0.56800
N2223       N  0.87088355  0.50501389  0.58037789    -0.36200
N2224       N  0.86547679  0.54873595  0.49683153    -0.56800
C2225       C  0.85800310  0.98182422  0.37743768     0.27400
C2226       C  0.85812352  0.52789159  0.37943978     0.27400
C2227       C  0.86462147  0.98190130  0.61029700     0.27400
C2228       C  0.86538457  0.52803514  0.61297121     0.27400
C2229       C  0.86931941  0.94508240  0.44613765     0.36000
C2230       C  0.87203678  0.94521069  0.53651076     0.36000
C2231       C  0.87004476  0.56448201  0.45100027     0.36000
C2232       C  0.87305784  0.56458855  0.54189435     0.36000
C2233       C  0.84654943  0.99056718  0.32786286    -0.21500
C2234       C  0.84661625  0.51951917  0.32912707    -0.21500
C2235       C  0.85471967  0.99045514  0.66215612    -0.21500
C2236       C  0.85521815  0.51938169  0.66382571    -0.21500
C2237       C  0.87960306  0.91906326  0.46088852    -0.22600
C2238       C  0.88128945  0.91914969  0.51788640    -0.22600
C2239       C  0.88067548  0.59032270  0.46722264    -0.22600
C2240       C  0.88259034  0.59037622  0.52433820    -0.22600
C2241       C  0.86351537  0.95328412  0.39072512    -0.17900
C2242       C  0.86406250  0.55626280  0.39480418    -0.17900
C2243       C  0.87027158  0.55657341  0.59876345    -0.17900
C2244       C  0.86903881  0.95330084  0.59335532    -0.17900
H2245       H  0.83902698  0.97746341  0.29403846     0.15000
H2246       H  0.83919664  0.53288524  0.29640027     0.15000
H2247       H  0.84757895  0.97728443  0.69545352     0.15000
H2248       H  0.84846320  0.53248158  0.69850567     0.15000
H2249       H  0.88578892  0.90186520  0.43361980     0.13300
H2250       H  0.88889691  0.90202952  0.54263200     0.13300
H2251       H  0.88691364  0.60733057  0.44078939     0.13300
H2252       H  0.89055927  0.60741508  0.54980903     0.13300
H2253       H  0.87635092  0.50466179  0.44548594     0.26500
H2254       H  0.88100558  0.50496255  0.54190176     0.26500
C2255       C  0.60380711  0.89706814  0.77393402     0.30400
C2256       C  0.63685691  0.86459589  0.70735644     0.30400
C2257       C  0.63087741  0.88601744  0.80189168    -0.05800
C2258       C  0.59050432  0.86922224  0.75371872    -0.06600
C2259       C  0.61375614  0.91068785  0.72012152    -0.06500
C2260       C  0.64798934  0.86954877  0.76781498    -0.05800
C2261       C  0.60713048  0.85232838  0.71951815    -0.06600
C2262       C  0.63041880  0.89433023  0.68637794    -0.06500
C2263       C  0.67116567  0.86235937  0.79989925    -0.31900
N2264       N  0.66888868  0.87425186  0.85198159     0.14600
C2265       C  0.64373439  0.88775441  0.85372063    -0.31900
H2266       H  0.63560413  0.89866938  0.89000102     0.16600
C2267       C  0.59235169  0.82718183  0.71252855    -0.30800
N2268       N  0.56724855  0.82903098  0.73961624     0.13400
C2269       C  0.56654881  0.85428498  0.76634047    -0.30800
C2270       C  0.63597064  0.90979648  0.63907495    -0.31100
N2271       N  0.62279732  0.93520890  0.64321587     0.13900
H2272       H  0.64840201  0.90280717  0.60378756     0.16500
C2273       C  0.60905623  0.93576061  0.69297054    -0.31100
H2274       H  0.59596566  0.95287203  0.70787090     0.16500
H2275       H  0.55006296  0.86083588  0.79462156     0.16500
H2276       H  0.68879238  0.84986876  0.78577501     0.16600
H2277       H  0.59960775  0.80838721  0.69116248     0.16500
N2278       N  0.53654039  0.75678390  0.74808792    -0.36200
N2279       N  0.99395546  0.80093982  0.74468464    -0.56800
N2280       N  0.95026952  0.75792647  0.74677334    -0.36200
N2281       N  0.99297163  0.71409832  0.76005197    -0.56800
C2282       C  0.55231043  0.78003413  0.75703341     0.27400
C2283       C  0.55139177  0.73433065  0.76578762     0.27400
C2284       C  0.93520857  0.78171970  0.75726054     0.27400
C2285       C  0.93483809  0.73572124  0.76386976     0.27400
C2286       C  0.51701870  0.81594067  0.73101180     0.36000
C2287       C  0.97131053  0.81678107  0.73155306     0.36000
C2288       C  0.51561897  0.69770717  0.74918248     0.36000
C2289       C  0.97028222  0.69829424  0.74781591     0.36000
C2290       C  0.57730684  0.77229023  0.78120006    -0.21500
C2291       C  0.57667901  0.74355648  0.78694193    -0.21500
C2292       C  0.91014932  0.77446081  0.78207175    -0.21500
C2293       C  0.90984769  0.74558198  0.78598154    -0.21500
C2294       C  0.50889182  0.84127913  0.70866620    -0.22600
C2295       C  0.98009393  0.84179446  0.70896917    -0.22600
C2296       C  0.50731177  0.67165069  0.72942670    -0.22600
C2297       C  0.97865476  0.67203912  0.72836041    -0.22600
C2298       C  0.54525279  0.80786330  0.74170814    -0.17900
C2299       C  0.54364844  0.70561782  0.75905442    -0.17900
C2300       C  0.94216336  0.70676785  0.75707523    -0.17900
C2301       C  0.94291995  0.80965364  0.74281221    -0.17900
H2302       H  0.59425571  0.78590435  0.79365091     0.15000
H2303       H  0.59308764  0.73090600  0.80457070     0.15000
H2304       H  0.89388676  0.78854135  0.79672788     0.15000
H2305       H  0.89317275  0.73328863  0.80360173     0.15000
H2306       H  0.52227886  0.85775043  0.69364132     0.13300
H2307       H  0.96715281  0.85869972  0.69408688     0.13300
H2308       H  0.52045835  0.65427096  0.71618553     0.13300
H2309       H  0.96560852  0.65496343  0.71402874     0.13300
H2310       H  0.51804853  0.75592137  0.72552394     0.26500
H2311       H  0.96880038  0.75664835  0.72398743     0.26500
C2312       C  0.85376603  0.64667767  0.71706138     0.30400
C2313       C  0.88696304  0.61501396  0.78158218     0.30400
C2314       C  0.86331890  0.61834606  0.69115227    -0.05800
C2315       C  0.88178194  0.66081224  0.73456084    -0.06600
C2316       C  0.84124755  0.63928738  0.77420107    -0.06500
C2317       C  0.87974645  0.60166794  0.72401994    -0.05800
C2318       C  0.89854541  0.64421563  0.76753731    -0.06600
C2319       C  0.85741455  0.62181130  0.80575696    -0.06500
C2320       C  0.88407763  0.57670446  0.69368724    -0.31900
N2321       N  0.87117176  0.57820513  0.64307192     0.14600
C2322       C  0.85835953  0.60373084  0.64184113    -0.31900
H2323       H  0.84559612  0.61099328  0.60796852     0.16600
C2324       C  0.92198597  0.65962749  0.78167879    -0.30800
N2325       N  0.92041083  0.68533228  0.75799114     0.13400
C2326       C  0.89561712  0.68651551  0.73080235    -0.30800
C2327       C  0.84143259  0.61535443  0.85235601    -0.31100
N2328       N  0.81759417  0.63072689  0.85285544     0.13900
H2329       H  0.84636485  0.60033997  0.88403045     0.16500
C2330       C  0.81706177  0.64527366  0.80459877    -0.31100
H2331       H  0.80029808  0.65909676  0.79233906     0.16500
H2332       H  0.88848736  0.70533466  0.71109074     0.16500
H2333       H  0.89557613  0.55862725  0.70776019     0.16600
H2334       H  0.93908787  0.65247363  0.80709104     0.16500
N2335       N  0.74309332  0.87849415  0.08213561    -0.36200
N2336       N  0.78603298  0.88268012  0.99424232    -0.56800
N2337       N  0.74219234  0.87738144  0.90969316    -0.36200
N2338       N  0.69874988  0.87886059  0.99761392    -0.56800
C2339       C  0.76642357  0.88469957  0.11236148     0.27400
C2340       C  0.72025278  0.88434387  0.11471433     0.27400
C2341       C  0.76447545  0.88596580  0.87872158     0.27400
C2342       C  0.71857610  0.88229858  0.87984199     0.27400
C2343       C  0.80257455  0.87715106  0.03833645     0.36000
C2344       C  0.80197675  0.87826936  0.94813893     0.36000
C2345       C  0.68311491  0.87416404  0.04408067     0.36000
C2346       C  0.68285983  0.87172226  0.95266611     0.36000
C2347       C  0.75827551  0.89443448  0.16450045    -0.21500
C2348       C  0.72941687  0.89444045  0.16584600    -0.21500
C2349       C  0.75478305  0.89658210  0.82917512    -0.21500
C2350       C  0.72604186  0.89445192  0.83007768    -0.21500
C2351       C  0.82886871  0.86892232  0.02007755    -0.22600
C2352       C  0.82848743  0.86960357  0.96310117    -0.22600
C2353       C  0.65731364  0.86378729  0.02831358    -0.22600
C2354       C  0.65718952  0.86215261  0.97096374    -0.22600
C2355       C  0.79493639  0.88097487  0.09497712    -0.17900
C2356       C  0.69143940  0.87972652  0.10050643    -0.17900
C2357       C  0.69052137  0.87538923  0.89543132    -0.17900
C2358       C  0.79340277  0.88335835  0.89286143    -0.17900
H2359       H  0.77173165  0.90122368  0.19806370     0.15000
H2360       H  0.71670888  0.90139680  0.20071805     0.15000
H2361       H  0.76709283  0.90538220  0.79599339     0.15000
H2362       H  0.71216288  0.90181019  0.79820767     0.15000
H2363       H  0.84653749  0.86286907  0.04506206     0.13300
H2364       H  0.84577000  0.86402234  0.93597537     0.13300
H2365       H  0.64041711  0.85751006  0.05526866     0.13300
H2366       H  0.64008626  0.85458478  0.94574450     0.13300
H2367       H  0.74292309  0.86863421  0.04403939     0.26500
H2368       H  0.74314547  0.86651142  0.94614721     0.26500
N2369       N  0.74706363  0.63118488  0.08569269    -0.36200
N2370       N  0.70325069  0.63140193  0.00011240    -0.56800
N2371       N  0.74591617  0.63411227  0.91401696    -0.36200
N2372       N  0.78983709  0.62853156  0.99914219    -0.56800
C2373       C  0.72397338  0.62416502  0.11540444     0.27400
C2374       C  0.76986584  0.62340070  0.11543451     0.27400
C2375       C  0.72290507  0.62783653  0.88359568     0.27400
C2376       C  0.76846421  0.62648498  0.88300043     0.27400
C2377       C  0.68758071  0.63653492  0.04624724     0.36000
C2378       C  0.68722193  0.63816823  0.95593197     0.36000
C2379       C  0.80621232  0.63319924  0.04441524     0.36000
C2380       C  0.80538570  0.63478474  0.95361193     0.36000
C2381       C  0.73226936  0.61150298  0.16401089    -0.21500
C2382       C  0.76108606  0.61122662  0.16430213    -0.21500
C2383       C  0.73097142  0.61589314  0.83315616    -0.21500
C2384       C  0.75970650  0.61491919  0.83299218    -0.21500
C2385       C  0.66167085  0.64691359  0.03128586    -0.22600
C2386       C  0.66145194  0.64796610  0.97419292    -0.22600
C2387       C  0.83208608  0.64271026  0.02742450    -0.22600
C2388       C  0.83163343  0.64358277  0.97018682    -0.22600
C2389       C  0.69565189  0.63011304  0.10131817    -0.17900
C2390       C  0.79837664  0.62796534  0.10062884    -0.17900
C2391       C  0.79675042  0.63108306  0.89722823    -0.17900
C2392       C  0.69487733  0.63355424  0.89938231    -0.17900
H2393       H  0.71892175  0.60276300  0.19548540     0.15000
H2394       H  0.77408000  0.60257917  0.19648209     0.15000
H2395       H  0.71757794  0.60825733  0.80019966     0.15000
H2396       H  0.77273697  0.60609989  0.80035934     0.15000
H2397       H  0.64463222  0.65310396  0.05854070     0.13300
H2398       H  0.64422383  0.65510791  0.94913097     0.13300
H2399       H  0.84933377  0.64895290  0.05351745     0.13300
H2400       H  0.84864144  0.65026913  0.94389206     0.13300
H2401       H  0.74724111  0.64312690  0.04994259     0.26500
H2402       H  0.74635124  0.64552727  0.95125115     0.26500
C2403       C  0.88367577  0.90035371  0.77672250     0.30400
C2404       C  0.85098885  0.86558786  0.71531590     0.30400
C2405       C  0.85503461  0.89305797  0.80281685    -0.05800
C2406       C  0.87594521  0.91119684  0.71819180    -0.06600
C2407       C  0.89698963  0.87135755  0.76088031    -0.06500
C2408       C  0.83875064  0.87538338  0.77122373    -0.05800
C2409       C  0.85891326  0.89374966  0.68663804    -0.06600
C2410       C  0.88018475  0.85367062  0.72949002    -0.06500
C2411       C  0.81418519  0.87066816  0.80008205    -0.31900
N2412       N  0.81474714  0.88504070  0.84923850     0.14600
C2413       C  0.83972007  0.89901579  0.85109408    -0.31900
H2414       H  0.84652887  0.91219946  0.88541689     0.16600
C2415       C  0.85583092  0.90687924  0.63533318    -0.30800
N2416       N  0.86972375  0.93171802  0.63576763     0.13400
C2417       C  0.88326688  0.93363750  0.68491054    -0.30800
C2418       C  0.89562443  0.82948069  0.71771298    -0.31100
N2419       N  0.92130405  0.83156992  0.74172082     0.13900
H2420       H  0.88859458  0.81156820  0.69347994     0.16500
C2421       C  0.92245768  0.85743690  0.76686323    -0.31100
H2422       H  0.94065365  0.86557366  0.78789738     0.16500
H2423       H  0.89782534  0.95023431  0.69462840     0.16500
H2424       H  0.79733918  0.85712262  0.78673741     0.16600
H2425       H  0.84492885  0.89898380  0.59921850     0.16500
C2426       C  0.88855193  0.61282599  0.21766962     0.30400
C2427       C  0.85524302  0.64727411  0.28020777     0.30400
C2428       C  0.87866185  0.60051414  0.27440071    -0.05800
C2429       C  0.90118316  0.64132365  0.23478788    -0.06600
C2430       C  0.85997816  0.62056196  0.19092772    -0.06500
C2431       C  0.86158808  0.61821849  0.30618460    -0.05800
C2432       C  0.88427639  0.65868447  0.26628057    -0.06600
C2433       C  0.84297474  0.63807225  0.22315848    -0.06500
C2434       C  0.85299060  0.60309943  0.35237515    -0.31900
N2435       N  0.86516733  0.57730208  0.35119928     0.14600
C2436       C  0.87980622  0.57513146  0.30269770    -0.31900
H2437       H  0.88987568  0.55591927  0.28893411     0.16600
C2438       C  0.89895576  0.68320020  0.27669047    -0.30800
N2439       N  0.92444710  0.68137272  0.25150959     0.13400
C2440       C  0.92597620  0.65565298  0.22595281    -0.30800
C2441       C  0.81820423  0.64159997  0.19408761    -0.31100
N2442       N  0.81976094  0.62764264  0.14421139     0.13900
H2443       H  0.80023989  0.65356644  0.20823669     0.16500
C2444       C  0.84508159  0.61424972  0.14258064    -0.31100
H2445       H  0.85214334  0.60072991  0.10877104     0.16500
H2446       H  0.94363235  0.64808353  0.20173661     0.16500
H2447       H  0.83848196  0.60997938  0.38439092     0.16600
H2448       H  0.89146441  0.70120350  0.30043521     0.16500
C2449       C  0.63444824  0.65106251  0.72567187     0.30400
C2450       C  0.60439663  0.61653075  0.79072015     0.30400
C2451       C  0.64874173  0.64232748  0.78000329    -0.05800
C2452       C  0.60563374  0.66196115  0.74364103    -0.06600
C2453       C  0.62755732  0.62199138  0.69835528    -0.06500
C2454       C  0.63314488  0.62509471  0.81296694    -0.05800
C2455       C  0.58990826  0.64469335  0.77675597    -0.06600
C2456       C  0.61127329  0.60466192  0.73117925    -0.06500
C2457       C  0.64857793  0.61954748  0.85994747    -0.31900
N2458       N  0.67331064  0.63327668  0.85694005     0.14600
C2459       C  0.67383582  0.64685798  0.80751683    -0.31900
H2460       H  0.69108720  0.65938096  0.79299434     0.16600
C2461       C  0.56467187  0.65875510  0.78589283    -0.30800
N2462       N  0.56529231  0.68404014  0.75979421     0.13400
C2463       C  0.59020792  0.68571301  0.73314237    -0.30800
C2464       C  0.60552511  0.58077083  0.69910264    -0.31100
N2465       N  0.61943583  0.58197818  0.64970407     0.13900
H2466       H  0.59214319  0.56359466  0.71073128     0.16500
C2467       C  0.63334857  0.60684999  0.64945342    -0.31100
H2468       H  0.64718416  0.61298334  0.61624044     0.16500
H2469       H  0.59665686  0.70299333  0.70753203     0.16500
H2470       H  0.64219459  0.60649579  0.89405892     0.16600
H2471       H  0.54714963  0.65113620  0.80966829     0.16500
C2472       C  0.63619813  0.86544189  0.28591542     0.30400
C2473       C  0.60201891  0.89669841  0.22360108     0.30400
C2474       C  0.64764358  0.87207943  0.22646279    -0.05800
C2475       C  0.60726913  0.85274022  0.27474664    -0.06600
C2476       C  0.63027725  0.89522138  0.30951980    -0.06500
C2477       C  0.63021248  0.88853829  0.19443928    -0.05800
C2478       C  0.59010750  0.86865834  0.24272519    -0.06600
C2479       C  0.61255404  0.91122677  0.27809948    -0.06500
C2480       C  0.64471871  0.89368062  0.14494734    -0.31900
N2481       N  0.67007253  0.88023865  0.14509418     0.14600
C2482       C  0.67193470  0.86732313  0.19522896    -0.31900
H2483       H  0.68999063  0.85552017  0.20835270     0.16600
C2484       C  0.56590488  0.85349382  0.23348974    -0.30800
N2485       N  0.56763076  0.82855251  0.25999770     0.13400
C2486       C  0.59302004  0.82805031  0.28575274    -0.30800
C2487       C  0.60981307  0.93706315  0.30592004    -0.31100
N2488       N  0.62464873  0.93667609  0.35396091     0.13900
H2489       H  0.59760870  0.95488311  0.29283435     0.16500
C2490       C  0.63825332  0.91164572  0.35504519    -0.31100
H2491       H  0.65284830  0.90592157  0.38702974     0.16500
H2492       H  0.60084602  0.81081427  0.30995176     0.16500
H2493       H  0.63747234  0.90669729  0.11156686     0.16600
H2494       H  0.54857549  0.85989384  0.20788351     0.16500
O2495       O  0.51285150  0.54126585  0.08244182    -0.79800
O2496       O  0.97225947  0.55152853  0.93792956    -0.79800
O2497       O  0.55625686  0.51377004  0.94467097    -0.79800
O2498       O  0.94381675  0.52128458  0.05423747    -0.79700
O2499       O  0.52617671  0.54746290  0.94258900    -0.79900
O2500       O  0.98425016  0.53775647  0.08732943    -0.79800
O2501       O  0.93784186  0.52189342  0.94355078    -0.79800
O2502       O  0.55035019  0.51890075  0.05408381    -0.79800
C2503       C  0.53914255  0.53996642  0.07872223     1.09900
C2504       C  0.94734428  0.54552889  0.92994394     1.09800
C2505       C  0.55053826  0.53908574  0.93506464     1.10000
C2506       C  0.95772089  0.53921457  0.08295935     1.09800
O2507       O  0.97206428  0.98795728  0.11050366    -0.79800
O2508       O  0.52361333  0.99370965  0.87897183    -0.79800
O2509       O  0.52339509  0.96391558  0.05984766    -0.79800
O2510       O  0.96557454  0.96748961  0.93536331    -0.79700
O2511       O  0.96812924  0.99922071  0.87238305    -0.79800
O2512       O  0.52124128  0.99253470  0.13326810    -0.79800
O2513       O  0.96662682  0.96236828  0.03944566    -0.79700
O2514       O  0.52393665  0.96221269  0.94481525    -0.79800
Co2515     Co  0.00399091  0.50265790  0.06548896     1.51500
Co2516     Co  0.99771826  0.52293316  0.91196026     1.51700
Co2517     Co  0.53497329  0.49024037  0.99937342     1.51600
Co2518     Co  0.95539690  0.49345774  0.99340960     1.51500
O2519       O  0.99461362  0.50737903  0.98911238    -1.41700
C2520       C  0.96149172  0.96650900  0.08923009     1.09900
C2521       C  0.52865978  0.96903018  0.89560110     1.10000
C2522       C  0.52766419  0.96872991  0.11180420     1.09900
C2523       C  0.96031567  0.97504795  0.88745924     1.09900
O2524       O  0.78365274  0.71750956  0.46858280    -0.79800
O2525       O  0.78745971  0.78726815  0.54642522    -0.79800
O2526       O  0.75977856  0.77664576  0.37116552    -0.79800
O2527       O  0.77027847  0.73199996  0.58932075    -0.79700
O2528       O  0.79004827  0.78403517  0.43717715    -0.79900
O2529       O  0.76198193  0.69159814  0.55185585    -0.79800
O2530       O  0.75477312  0.78395497  0.60852347    -0.79800
O2531       O  0.76030594  0.72228133  0.39120973    -0.79800
C2532       C  0.78243156  0.71515395  0.41652235     1.09900
C2533       C  0.77862774  0.79226382  0.59438755     1.09800
C2534       C  0.78358592  0.78512426  0.38698021     1.10000
C2535       C  0.77436744  0.70571798  0.58698879     1.09800
O2536       O  0.71323077  0.71478144  0.55535928    -0.79800
O2537       O  0.73721309  0.81380679  0.42829725    -0.79800
O2538       O  0.70496533  0.72815863  0.44707668    -0.79800
O2539       O  0.70404123  0.77771692  0.54789362    -0.79700
O2540       O  0.73212078  0.81382665  0.53902217    -0.79800
O2541       O  0.73021801  0.69180098  0.45051519    -0.79800
O2542       O  0.71861410  0.74255873  0.62955471    -0.79700
O2543       O  0.70587487  0.78096148  0.42939744    -0.79800
Co2544     Co  0.74692655  0.71735902  0.50255945     1.51500
Co2545     Co  0.76198729  0.79803353  0.48818982     1.51700
Co2546     Co  0.73274449  0.75224381  0.41320654     1.51600
Co2547     Co  0.73612758  0.75385909  0.56449540     1.51500
O2548       O  0.74879512  0.75864827  0.48866436    -1.41700
C2549       C  0.70589186  0.72286993  0.60459405     1.09900
C2550       C  0.71314901  0.80478274  0.41597826     1.10000
C2551       C  0.70819902  0.70289206  0.43518340     1.09900
C2552       C  0.70857814  0.80367158  0.55297731     1.09900
C2553       C  0.55413442  0.92504546  0.11243951    -0.19900
C2554       C  0.54110627  0.94685436  0.14318028    -0.06500
C2555       C  0.54329810  0.94773556  0.20132893     0.14400
C2556       C  0.56107540  0.92866045  0.22571218    -0.20000
C2557       C  0.57977852  0.91229957  0.19341986    -0.06500
C2558       C  0.57289146  0.90700334  0.13730683     0.14400
C2559       C  0.58281393  0.88200637  0.10322376    -0.23300
H2560       H  0.55045095  0.92236953  0.06825913     0.15700
H2561       H  0.56083531  0.92724200  0.27044054     0.15700
C2562       C  0.52809416  0.96877366  0.23808734    -0.23300
H2563       H  0.56440544  0.87048617  0.08691905     0.05900
H2564       H  0.59491270  0.86664014  0.12717017     0.09100
H2565       H  0.59541975  0.88912468  0.06736315     0.09100
H2566       H  0.50541862  0.96797724  0.23008959     0.09100
H2567       H  0.53600704  0.99020995  0.23051132     0.09100
H2568       H  0.53130017  0.96459495  0.28287189     0.05900
C2569       C  0.66905427  0.82584024  0.29628110    -0.19900
C2570       C  0.65353908  0.84721063  0.32181119    -0.06500
C2571       C  0.65282291  0.84853644  0.38063753     0.14400
C2572       C  0.67539650  0.83773774  0.40921947    -0.20000
C2573       C  0.69411800  0.81992547  0.38169931    -0.06500
C2574       C  0.68847462  0.81096186  0.32636456     0.14400
C2575       C  0.70075071  0.78526355  0.29819164    -0.23300
H2576       H  0.66531490  0.82000269  0.25327686     0.15700
H2577       H  0.67660772  0.84058984  0.45397031     0.15700
C2578       C  0.62745954  0.85672650  0.41448723    -0.23300
H2579       H  0.68365011  0.77059483  0.28701297     0.05900
H2580       H  0.71133008  0.79121108  0.25908139     0.09100
H2581       H  0.71550640  0.77377114  0.32441836     0.09100
H2582       H  0.62015424  0.83818457  0.43767359     0.09100
H2583       H  0.60972318  0.86374922  0.38884056     0.09100
H2584       H  0.63307051  0.87313974  0.44552051     0.05900
C2585       C  0.67840821  0.71429854  0.68834541    -0.19900
C2586       C  0.68290839  0.70864355  0.63184587    -0.06500
C2587       C  0.66611093  0.68858925  0.60389303     0.14400
C2588       C  0.64911388  0.67151451  0.63541791    -0.20000
C2589       C  0.64945187  0.67310006  0.69342303    -0.10100
C2590       C  0.66080325  0.69753927  0.71929002     0.14400
C2591       C  0.65461120  0.70756194  0.77803675    -0.23300
H2592       H  0.68907101  0.73152652  0.70905713     0.15700
H2593       H  0.63524668  0.65725009  0.61424812     0.15700
C2594       C  0.66571344  0.68454487  0.54154852    -0.23300
H2595       H  0.64586822  0.72915026  0.77687913     0.05900
H2596       H  0.67418851  0.70821092  0.80250063     0.09100
H2597       H  0.63920824  0.69476145  0.80037879     0.09100
H2598       H  0.68567938  0.67508088  0.52703274     0.09100
H2599       H  0.66188295  0.70494430  0.52130813     0.09100
H2600       H  0.64897156  0.66997964  0.52785132     0.05900
C2601       C  0.59780435  0.56850607  0.82680584    -0.19900
C2602       C  0.59103072  0.59712310  0.83192581    -0.06500
C2603       C  0.57870685  0.60652024  0.88286422     0.14400
C2604       C  0.56673712  0.58674128  0.91767324    -0.20000
C2605       C  0.56960646  0.55795324  0.90661212    -0.06500
C2606       C  0.58672179  0.54877162  0.86234297     0.14400
C2607       C  0.59274036  0.51841904  0.85050978    -0.23300
H2608       H  0.61256205  0.56128479  0.79572361     0.15700
H2609       H  0.55516137  0.59385941  0.95404594     0.15700
C2610       C  0.57957680  0.63628311  0.90517868    -0.23300
H2611       H  0.60663945  0.51544283  0.81380282     0.05900
H2612       H  0.57301912  0.50735376  0.84113201     0.09100
H2613       H  0.60328292  0.50932095  0.88698677     0.09100
H2614       H  0.55813232  0.64513658  0.90740028     0.09100
H2615       H  0.59323131  0.65027449  0.88127967     0.09100
H2616       H  0.58830411  0.63630218  0.94785897     0.05900
C2617       C  0.92477077  0.57462879  0.20695571    -0.19900
C2618       C  0.90895223  0.59580325  0.18207523    -0.06500
C2619       C  0.91543004  0.60251607  0.12610120     0.14400
C2620       C  0.93209829  0.58390296  0.09456192    -0.20000
C2621       C  0.94279027  0.55954401  0.11789642    -0.06500
C2622       C  0.94027148  0.55544553  0.17534693     0.14400
C2623       C  0.95342895  0.53072827  0.20360436    -0.23300
H2624       H  0.92602796  0.57339484  0.25140140     0.15700
H2625       H  0.93747815  0.58871545  0.05210128     0.15700
C2626       C  0.90688366  0.62956258  0.09905524    -0.23300
H2627       H  0.94972788  0.53133883  0.24919759     0.05900
H2628       H  0.97633019  0.53052189  0.19642271     0.09100
H2629       H  0.94407905  0.51106221  0.18720712     0.09100
H2630       H  0.89641944  0.64475700  0.12729502     0.09100
H2631       H  0.89242290  0.62513386  0.06450274     0.09100
H2632       H  0.92568630  0.64016665  0.08250848     0.05900
C2633       C  0.80708793  0.70739681  0.32806217    -0.19900
C2634       C  0.80495701  0.70158483  0.38483003    -0.06500
C2635       C  0.82314839  0.68174214  0.40836682     0.14400
C2636       C  0.84081591  0.66647051  0.37325479    -0.20000
C2637       C  0.83887931  0.66825167  0.31528781    -0.06500
C2638       C  0.82501254  0.69194724  0.29332758     0.14400
C2639       C  0.82983125  0.70310136  0.23576335    -0.23300
H2640       H  0.79486714  0.72430911  0.31070924     0.15700
H2641       H  0.85628026  0.65304883  0.39169446     0.15700
C2642       C  0.82360688  0.67538093  0.46951474    -0.23300
H2643       H  0.83678143  0.72525287  0.23920867     0.05900
H2644       H  0.81010259  0.70256868  0.21179300     0.09100
H2645       H  0.84631408  0.69176159  0.21216493     0.09100
H2646       H  0.80271268  0.66828291  0.48335989     0.09100
H2647       H  0.82999440  0.69430367  0.49326532     0.09100
H2648       H  0.83870835  0.65844416  0.47930908     0.05900
C2649       C  0.81402295  0.85645680  0.64528613    -0.19900
C2650       C  0.83103382  0.84572905  0.68692900    -0.06500
C2651       C  0.82544786  0.81812927  0.70614889     0.14400
C2652       C  0.80703921  0.80118684  0.67614892    -0.20000
C2653       C  0.79420562  0.81124892  0.62876049    -0.06500
C2654       C  0.79757935  0.83922499  0.61279216     0.14400
C2655       C  0.78397380  0.85151838  0.56215583    -0.23300
H2656       H  0.81198427  0.87861971  0.63962994     0.15700
H2657       H  0.80298734  0.77995248  0.68938151     0.15700
C2658       C  0.83667544  0.80590407  0.75900198    -0.23300
H2659       H  0.79095652  0.87335524  0.55497008     0.05900
H2660       H  0.76117267  0.85239493  0.56781234     0.09100
H2661       H  0.78946853  0.83910712  0.52426823     0.09100
H2662       H  0.81893669  0.79949192  0.78573913     0.09100
H2663       H  0.84929698  0.82054397  0.78428094     0.09100
H2664       H  0.84938738  0.78699422  0.74872263     0.05900
C2665       C  0.89974889  0.94914794  0.80218322    -0.19900
C2666       C  0.90095453  0.92018926  0.81210041    -0.06500
C2667       C  0.91848330  0.91088473  0.85487240     0.14400
C2668       C  0.93949397  0.92866610  0.87357653    -0.20000
C2669       C  0.94136100  0.95671378  0.85597195    -0.06500
C2670       C  0.92052610  0.96732605  0.82096453     0.14400
C2671       C  0.91911572  0.99769913  0.80494448    -0.23300
H2672       H  0.88226526  0.95779262  0.77995326     0.15700
H2673       H  0.95365708  0.92083368  0.90478515     0.15700
C2674       C  0.91410023  0.88391503  0.88570453    -0.23300
H2675       H  0.90146400  0.50190153  0.77644986     0.05900
H2676       H  0.93863396  0.50368139  0.78320422     0.09100
H2677       H  0.91602219  0.51100445  0.84261140     0.09100
H2678       H  0.93308848  0.87055858  0.88293189     0.09100
H2679       H  0.89590898  0.87179724  0.87070568     0.09100
H2680       H  0.91012373  0.88893290  0.93025248     0.05900
C2681       C  0.94256894  0.56594283  0.83881668    -0.19900
C2682       C  0.93209633  0.56326587  0.89307456    -0.06500
C2683       C  0.91075982  0.58079433  0.91246450     0.14400
C2684       C  0.90066910  0.60088953  0.87709786    -0.20000
C2685       C  0.90602667  0.59920875  0.81974516    -0.06500
C2686       C  0.92992726  0.58410388  0.80158658     0.14400
C2687       C  0.94408624  0.58813543  0.74622544    -0.23300
H2688       H  0.96081027  0.55396315  0.82566705     0.15700
H2689       H  0.88818082  0.61765570  0.89490280     0.15700
C2690       C  0.89826133  0.57918781  0.96954803    -0.23300
H2691       H  0.96599987  0.59476243  0.75326686     0.05900
H2692       H  0.93423728  0.60459374  0.72102713     0.09100
H2693       H  0.94434980  0.56806826  0.72219507     0.09100
H2694       H  0.90163255  0.59947696  0.99101675     0.09100
H2695       H  0.90719772  0.56204868  0.99442907     0.09100
H2696       H  0.87545402  0.57551254  0.96624944     0.05900
C2697       C  0.78735706  0.66516941  0.63987744    -0.19900
C2698       C  0.79445854  0.69165809  0.62051596    -0.06500
C2699       C  0.82164392  0.70177962  0.62543201     0.14400
C2700       C  0.84109920  0.68542578  0.65248014    -0.20000
C2701       C  0.83326737  0.66100248  0.68000472    -0.06500
C2702       C  0.80631546  0.64947611  0.66968306     0.14400
C2703       C  0.79629450  0.62083544  0.68727312    -0.23300
H2704       H  0.76669376  0.65674736  0.63198504     0.15700
H2705       H  0.86250889  0.69125835  0.64896794     0.15700
C2706       C  0.83038574  0.72939108  0.60125329    -0.23300
H2707       H  0.79119823  0.60804886  0.64972693     0.05900
H2708       H  0.77696801  0.62338910  0.71237236     0.09100
H2709       H  0.81126941  0.60849935  0.71155543     0.09100
H2710       H  0.81865824  0.74662682  0.62212784     0.09100
H2711       H  0.82601972  0.72985742  0.55613434     0.09100
H2712       H  0.85295607  0.73351075  0.60743292     0.05900
C2713       C  0.55631166  0.91750092  0.79042721    -0.19900
C2714       C  0.58474601  0.91677969  0.80563017    -0.06500
C2715       C  0.59466744  0.93796296  0.84228084     0.14400
C2716       C  0.57531188  0.95250935  0.87493034    -0.20000
C2717       C  0.54683333  0.95099220  0.86315509    -0.06500
C2718       C  0.53713555  0.93422484  0.81930476     0.14400
C2719       C  0.50676382  0.93345569  0.80404082    -0.23300
H2720       H  0.54897555  0.90540640  0.75506740     0.15700
H2721       H  0.58258976  0.96670233  0.90727865     0.15700
C2722       C  0.62435370  0.94857886  0.84332792    -0.23300
H2723       H  0.50279526  0.91905966  0.76821125     0.05900
H2724       H  0.49950825  0.95477155  0.79295082     0.09100
H2725       H  0.49462174  0.92589002  0.84001224     0.09100
H2726       H  0.63806630  0.93869127  0.81156351     0.09100
H2727       H  0.63345388  0.94627890  0.88530902     0.09100
H2728       H  0.62451870  0.97110975  0.83344104     0.05900
C2729       C  0.64376871  0.83133717  0.62561826    -0.19900
C2730       C  0.65574301  0.84945852  0.66574529    -0.06500
C2731       C  0.68423943  0.85689815  0.65858720     0.14400
C2732       C  0.70057531  0.84162115  0.62084633    -0.20000
C2733       C  0.68907725  0.82114510  0.58564708    -0.06500
C2734       C  0.66005881  0.81668298  0.58635345     0.14400
C2735       C  0.64602193  0.79714298  0.54531071    -0.23300
H2736       H  0.62145668  0.82938307  0.62272216     0.15700
H2737       H  0.72272856  0.84577088  0.61952068     0.15700
C2738       C  0.69843776  0.88160201  0.68637744    -0.23300
H2739       H  0.62292674  0.79805522  0.54924411     0.05900
H2740       H  0.65247994  0.77515241  0.55255372     0.09100
H2741       H  0.65160666  0.80298994  0.50227326     0.09100
H2742       H  0.71575378  0.87399241  0.71270026     0.09100
H2743       H  0.68447309  0.89522775  0.71148712     0.09100
H2744       H  0.70745990  0.89524377  0.65399758     0.05900
C2745       C  0.80612620  0.84358603  0.29719060    -0.19900
C2746       C  0.83466304  0.84455944  0.30786575    -0.06500
C2747       C  0.84525806  0.82821289  0.35140735     0.14400
C2748       C  0.82907601  0.80622580  0.37069222    -0.20000
C2749       C  0.80151595  0.80228062  0.35221097    -0.06500
C2750       C  0.79002958  0.82129350  0.31420630     0.14400
C2751       C  0.76095920  0.81909866  0.29172481    -0.23300
H2752       H  0.79608056  0.86062229  0.27606182     0.15700
H2753       H  0.83740764  0.79333770  0.40347869     0.15700
C2754       C  0.87176825  0.83493547  0.38250271    -0.23300
H2755       H  0.75658294  0.83508236  0.25978790     0.05900
H2756       H  0.75841582  0.79817221  0.27166785     0.09100
H2757       H  0.74571528  0.82249149  0.32558842     0.09100
H2758       H  0.88272430  0.85355538  0.36663551     0.09100
H2759       H  0.88621368  0.81668650  0.38093674     0.09100
H2760       H  0.86653998  0.83951273  0.42673839     0.05900
C2761       C  0.94691592  0.94458668  0.17580983    -0.19900
C2762       C  0.94282980  0.94791539  0.11904518    -0.06500
C2763       C  0.92173804  0.93253890  0.09133808     0.14400
C2764       C  0.90460794  0.91521821  0.12221448    -0.20000
C2765       C  0.90679129  0.91379559  0.18009620    -0.06500
C2766       C  0.93035222  0.92639381  0.20624026     0.14400
C2767       C  0.94025380  0.92023280  0.26434193    -0.23300
H2768       H  0.96395127  0.95533039  0.19611722     0.15700
H2769       H  0.89045768  0.90170299  0.09998331     0.15700
C2770       C  0.91650223  0.93439155  0.02959976    -0.23300
H2771       H  0.96214603  0.91250152  0.26227697     0.05900
H2772       H  0.92818129  0.90391335  0.28564345     0.09100
H2773       H  0.93977708  0.93973959  0.29017041     0.09100
H2774       H  0.93455467  0.92562461  0.00598485     0.09100
H2775       H  0.91286955  0.95656438  0.01813645     0.09100
H2776       H  0.89781128  0.92227492  0.01659510     0.05900
C2777       C  0.69759106  0.66134310  0.38155952    -0.19900
C2778       C  0.68996687  0.68864261  0.39741265    -0.06500
C2779       C  0.66842251  0.70290120  0.36986248     0.14400
C2780       C  0.65549537  0.68924582  0.32640932    -0.20000
C2781       C  0.65980100  0.66075364  0.31626513    -0.06500
C2782       C  0.68333116  0.64721227  0.34006285     0.14400
C2783       C  0.69532070  0.61922671  0.32051532    -0.23300
H2784       H  0.71537723  0.65119773  0.40052280     0.15700
H2785       H  0.64282946  0.70140612  0.29905515     0.15700
C2786       C  0.65869899  0.73230513  0.38451233    -0.23300
H2787       H  0.71368045  0.61290163  0.34547951     0.05900
H2788       H  0.70289100  0.62090429  0.27748972     0.09100
H2789       H  0.68042009  0.60177434  0.32276444     0.09100
H2790       H  0.67528764  0.74751378  0.37492617     0.09100
H2791       H  0.65284219  0.73374835  0.42916379     0.09100
H2792       H  0.64002532  0.73848211  0.36032759     0.05900
C2793       C  0.56881632  0.60547468  0.14334084    -0.19900
C2794       C  0.58988338  0.59414959  0.17689002    -0.06500
C2795       C  0.59736402  0.56550685  0.16831508     0.14400
C2796       C  0.58019676  0.54856088  0.13570507    -0.20000
C2797       C  0.55670390  0.55952578  0.10932608    -0.06500
C2798       C  0.55109229  0.58838741  0.11214857     0.14400
C2799       C  0.52701452  0.60134847  0.08150057    -0.23300
H2800       H  0.56677798  0.62775403  0.13888573     0.15700
H2801       H  0.58517261  0.52641036  0.13120236     0.15700
C2802       C  0.62359662  0.55181284  0.18982926    -0.23300
H2803       H  0.52692597  0.62458033  0.08565642     0.05900
H2804       H  0.50695230  0.59372563  0.09867904     0.09100
H2805       H  0.52831234  0.59572853  0.03669328     0.09100
H2806       H  0.63578456  0.54302062  0.15420156     0.09100
H2807       H  0.63775416  0.56610862  0.21244980     0.09100
H2808       H  0.61788313  0.53432513  0.21746564     0.05900
loop_ 
_geom_bond_atom_site_label_1 
_geom_bond_atom_site_label_2 
_geom_bond_distance 
_geom_bond_site_symmetry_2 
_ccdc_geom_bond_type 
C1            C3   1.542       .  S
C1            C5   1.558       .  S
C1            C4   1.566       .  S
C1          C688   1.513       .  S
C2            C6   1.529       .  S
C2            C8   1.535       .  S
C2            C7   1.563       .  S
C2          C675   1.492       .  S
C3           C11   1.390       .  A
C3            C6   1.370       .  A
C4           C15   1.398       .  A
C4            C7   1.395       .  A
C5           C19   1.395       .  A
C5            C8   1.379       .  A
C6            C9   1.386       .  A
C7           C13   1.399       .  A
C8           C16   1.385       .  A
C9           N10   1.360       .  A
C9           H22   1.083       .  S
N10          C11   1.365       .  A
N10         C283   1.459       .  S
C11          H12   1.082       .  S
C13          N14   1.357       .  A
C13          H23   1.080       .  S
N14          C15   1.359       .  A
N14          C44   1.463       .  S
C15          H21   1.079       .  S
C16          N17   1.357       .  A
C16          H18   1.082       .  S
N17          C19   1.370       .  A
N17         C102   1.461       .  S
C19          H20   1.082       .  S
N24          C29   1.359       .  A
N24        C1432   1.359       .  A
N24          H56   1.040       .  S
N25          C32   1.360       .  A
N25          C33   1.360       .  A
N26          C31   1.363       .  A
N26        C1434   1.361       .  A
N26          H57   1.040       .  S
N27          C34   1.359       .  A
N27          C35   1.360       .  A
C28          C36   1.385       .  A
C28          C44   1.423       .  A
C28        N1428   1.359   1_455  A
C29          C45   1.426       .  A
C29          C37   1.387       .  A
C30          C38   1.387       .  A
C30          C47   1.431       .  A
C30        N1430   1.361   1_455  A
C31          C46   1.430       .  A
C31          C39   1.386       .  A
C32          C44   1.428       .  A
C32          C40   1.386       .  A
C33          C47   1.426       .  A
C33          C41   1.386       .  A
C34          C42   1.385       .  A
C34          C45   1.426       .  A
C35          C43   1.386       .  A
C35          C46   1.428       .  A
C36        C1441   1.380   1_455  A
C36          H48   1.082       .  S
C37        C1440   1.380       .  A
C37          H49   1.082       .  S
C38        C1443   1.381   1_455  A
C38          H50   1.082       .  S
C39        C1442   1.381       .  A
C39          H51   1.082       .  S
C40          C41   1.377       .  A
C40          H52   1.082       .  S
C41          H53   1.082       .  S
C42          C43   1.377       .  A
C42          H54   1.082       .  S
C43          H55   1.082       .  S
C45         N333   1.461       .  S
C46          N74   1.468       .  S
C47         N379   1.465       .  S
C58          C60   1.559       .  S
C58          C62   1.544       .  S
C58          C61   1.542       .  S
C58         C640   1.504       .  S
C59          C63   1.570       .  S
C59          C65   1.549       .  S
C59          C64   1.546       .  S
C59         C659   1.510       .  S
C60          C68   1.395       .  A
C60          C63   1.389       .  A
C61          C72   1.389       .  A
C61          C64   1.379       .  A
C62          C76   1.391       .  A
C62          C65   1.376       .  A
C63          C66   1.404       .  A
C64          C70   1.390       .  A
C65          C73   1.395       .  A
C66          N67   1.366       .  A
C66          H79   1.081       .  S
N67          C68   1.352       .  A
N67         C249   1.464       .  S
C68          H69   1.081       .  S
C70          N71   1.364       .  A
C70          H80   1.082       .  S
N71          C72   1.366       .  A
N71         C135   1.463       .  S
C72          H78   1.082       .  S
C73          N74   1.367       .  A
C73          H75   1.082       .  S
N74          C76   1.363       .  A
C76          H77   1.081       .  S
N81          C86   1.356       .  A
N81         C787   1.358   1_545  A
N81         H113   1.039       .  S
N82          C89   1.360       .  A
N82          C90   1.360       .  A
N83          C88   1.361       .  A
N83         C789   1.362   1_545  A
N83         H114   1.038       .  S
N84          C91   1.362       .  A
N84          C92   1.361       .  A
C85          C93   1.384       .  A
C85         C101   1.417       .  A
C85         N783   1.358       .  A
C86         C102   1.420       .  A
C86          C94   1.386       .  A
C87          C95   1.386       .  A
C87         C104   1.430       .  A
C87         N785   1.362       .  A
C88         C103   1.431       .  A
C88          C96   1.387       .  A
C89         C101   1.424       .  A
C89          C97   1.382       .  A
C90         C104   1.425       .  A
C90          C98   1.385       .  A
C91          C99   1.385       .  A
C91         C102   1.430       .  A
C92         C100   1.386       .  A
C92         C103   1.430       .  A
C93         C796   1.378       .  A
C93         H105   1.082       .  S
C94         C795   1.378   1_545  A
C94         H106   1.081       .  S
C95         C798   1.381       .  A
C95         H107   1.082       .  S
C96         C797   1.381   1_545  A
C96         H108   1.082       .  S
C97          C98   1.377       .  A
C97         H109   1.080       .  S
C98         H110   1.082       .  S
C99         C100   1.379       .  A
C99         H111   1.082       .  S
C100        H112   1.082       .  S
C101        N382   1.461       .  S
C103        N359   1.466       .  S
C104        N165   1.466       .  S
N115        C120   1.359       .  A
N115        C821   1.361   1_545  A
N115        H147   1.043       .  S
N116        C123   1.359       .  A
N116        C124   1.358       .  A
N117        C122   1.363       .  A
N117        C823   1.361   1_545  A
N117        H148   1.043       .  S
N118        C125   1.362       .  A
N118        C126   1.363       .  A
C119        C127   1.386       .  A
C119        C135   1.427       .  A
C119        N817   1.361       .  A
C120        C136   1.427       .  A
C120        C128   1.386       .  A
C121        C129   1.388       .  A
C121        C138   1.432       .  A
C121        N819   1.361       .  A
C122        C137   1.429       .  A
C122        C130   1.385       .  A
C123        C135   1.425       .  A
C123        C131   1.386       .  A
C124        C138   1.422       .  A
C124        C132   1.385       .  A
C125        C133   1.386       .  A
C125        C136   1.433       .  A
C126        C134   1.386       .  A
C126        C137   1.433       .  A
C127        C830   1.381       .  A
C127        H139   1.082       .  S
C128        C829   1.381   1_545  A
C128        H140   1.082       .  S
C129        C832   1.380       .  A
C129        H141   1.082       .  S
C130        C831   1.380   1_545  A
C130        H142   1.082       .  S
C131        C132   1.375       .  A
C131        H143   1.081       .  S
C132        H144   1.082       .  S
C133        C134   1.378       .  A
C133        H145   1.082       .  S
C134        H146   1.082       .  S
C136        N329   1.465       .  S
C137        N215   1.472       .  S
C138        N310   1.462       .  S
C149        C151   1.558       .  S
C149        C153   1.534       .  S
C149        C152   1.547       .  S
C149        C608   1.504       .  S
C150        C154   1.567       .  S
C150        C156   1.544       .  S
C150        C155   1.570       .  S
C150        C624   1.518       .  S
C151        C159   1.395       .  A
C151        C154   1.389       .  A
C152        C163   1.388       .  A
C152        C155   1.388       .  A
C153        C167   1.390       .  A
C153        C156   1.369       .  A
C154        C157   1.400       .  A
C155        C161   1.403       .  A
C156        C164   1.392       .  A
C157        N158   1.371       .  A
C157        H170   1.082       .  S
N158        C159   1.364       .  A
N158        C251   1.477       .  S
C159        H160   1.079       .  S
C161        N162   1.367       .  A
C161        H171   1.081       .  S
N162        C163   1.356       .  A
N162        C192   1.464       .  S
C163        H169   1.082       .  S
C164        N165   1.366       .  A
C164        H166   1.082       .  S
N165        C167   1.364       .  A
C167        H168   1.082       .  S
N172        C177   1.359       .  A
N172        C176   1.359       .  A
N172        H204   1.042       .  S
N173        C181   1.361       .  A
N173       C1584   1.361       .  A
N174        C179   1.362       .  A
N174        C178   1.362       .  A
N174        H205   1.042       .  S
N175        C183   1.356       .  A
N175       C1586   1.357       .  A
C176        C184   1.385       .  A
C176        C192   1.423       .  A
C177        C193   1.427       .  A
C177        C185   1.387       .  A
C178        C186   1.386       .  A
C178        C195   1.432       .  A
C179        C194   1.430       .  A
C179        C187   1.385       .  A
C180        C192   1.431       .  A
C180        C188   1.386       .  A
C180       N1577   1.361   1_455  A
C181        C195   1.429       .  A
C181        C189   1.385       .  A
C182        C190   1.384       .  A
C182        C193   1.417       .  A
C182       N1579   1.357   1_455  A
C183        C191   1.386       .  A
C183        C194   1.420       .  A
C184        C185   1.380       .  A
C184        H196   1.082       .  S
C185        H197   1.082       .  S
C186        C187   1.382       .  A
C186        H198   1.081       .  S
C187        H199   1.082       .  S
C188       C1593   1.380   1_455  A
C188        H200   1.082       .  S
C189       C1592   1.380       .  A
C189        H201   1.082       .  S
C190       C1595   1.373   1_455  A
C190        H202   1.082       .  S
C191       C1594   1.373       .  A
C191        H203   1.081       .  S
C193        N356   1.458       .  S
C194        N219   1.463       .  S
C195        N313   1.469       .  S
C206        C208   1.545       .  S
C206        C210   1.545       .  S
C206        C209   1.561       .  S
C206        C595   1.500       .  S
C207        C211   1.556       .  S
C207        C213   1.559       .  S
C207        C212   1.543       .  S
C207        C579   1.507       .  S
C208        C216   1.388       .  A
C208        C211   1.378       .  A
C209        C220   1.400       .  A
C209        C212   1.387       .  A
C210        C224   1.394       .  A
C210        C213   1.376       .  A
C211        C214   1.400       .  A
C212        C218   1.385       .  A
C213        C221   1.395       .  A
C214        N215   1.372       .  A
C214        H227   1.081       .  S
N215        C216   1.362       .  A
C216        H217   1.082       .  S
C218        N219   1.363       .  A
C218        H228   1.082       .  S
N219        C220   1.360       .  A
C220        H226   1.077       .  S
C221        N222   1.355       .  A
C221        H223   1.081       .  S
N222        C224   1.363       .  A
N222        C285   1.459       .  S
C224        H225   1.082       .  S
N229        C234   1.368       .  A
N229        C233   1.367       .  A
N229        H261   1.024       .  S
N230        C237   1.357   1_556  A
N230        C238   1.357       .  A
N231        C236   1.365       .  A
N231        C235   1.367       .  A
N231        H262   1.028       .  S
N232        C239   1.365   1_556  A
N232        C240   1.365       .  A
C233        C241   1.385       .  A
C233        C249   1.436       .  A
C234        C250   1.441       .  A
C234        C242   1.388       .  A
C235        C243   1.385       .  A
C235        C252   1.434       .  A
C236        C251   1.435       .  A
C236        C244   1.386       .  A
C237        C249   1.419       .  A
C237        C245   1.385       .  A
C238        C252   1.419       .  A
C238        C246   1.385       .  A
C239        C247   1.386       .  A
C239        C250   1.438       .  A
C240        C248   1.386       .  A
C240        C251   1.438       .  A
C241        C242   1.383       .  A
C241        H253   1.082       .  S
C242        H254   1.081       .  S
C243        C244   1.381       .  A
C243        H255   1.082       .  S
C244        H256   1.080       .  S
C245        C246   1.373   1_554  A
C245        H257   1.082       .  S
C246        H258   1.082       .  S
C247        C248   1.382   1_554  A
C247        H259   1.081       .  S
C248        H260   1.082       .  S
C250        N375   1.480       .  S
C252        N306   1.466       .  S
N263        C268   1.363       .  A
N263        C267   1.361       .  A
N263        H295   1.040       .  S
N264        C271   1.356       .  A
N264        C272   1.357   1_554  A
N265        C270   1.355       .  A
N265        C269   1.358       .  A
N265        H296   1.041       .  S
N266        C273   1.362   1_556  A
N266        C274   1.360       .  A
C267        C275   1.385       .  A
C267        C283   1.429       .  A
C268        C284   1.429       .  A
C268        C276   1.385       .  A
C269        C277   1.385       .  A
C269        C286   1.418       .  A
C270        C285   1.416       .  A
C270        C278   1.383       .  A
C271        C283   1.421       .  A
C271        C279   1.386       .  A
C272        C286   1.422       .  A
C272        C280   1.385       .  A
C273        C281   1.384       .  A
C273        C284   1.429       .  A
C274        C282   1.386       .  A
C274        C285   1.429       .  A
C275        C276   1.381       .  A
C275        H287   1.079       .  S
C276        H288   1.082       .  S
C277        C278   1.377       .  A
C277        H289   1.082       .  S
C278        H290   1.080       .  S
C279        C280   1.376   1_554  A
C279        H291   1.082       .  S
C280        H292   1.082       .  S
C281        C282   1.380   1_554  A
C281        H293   1.080       .  S
C282        H294   1.082       .  S
C284        N336   1.470       .  S
C286        N352   1.457       .  S
C297        C299   1.550       .  S
C297        C301   1.561       .  S
C297        C300   1.555       .  S
C297        C560   1.514       .  S
C298        C302   1.531       .  S
C298        C304   1.549       .  S
C298        C303   1.568       .  S
C298        C544   1.507       .  S
C299        C307   1.396       .  A
C299        C302   1.374       .  A
C300        C311   1.393       .  A
C300        C303   1.388       .  A
C301        C315   1.396       .  A
C301        C304   1.386       .  A
C302        C305   1.385       .  A
C303        C309   1.402       .  A
C304        C312   1.392       .  A
C305        N306   1.358       .  A
C305        H318   1.082       .  S
N306        C307   1.373       .  A
C307        H308   1.082       .  S
C309        N310   1.361       .  A
C309        H319   1.080       .  S
N310        C311   1.354       .  A
C311        H317   1.081       .  S
C312        N313   1.365       .  A
C312        H314   1.082       .  S
N313        C315   1.366       .  A
C315        H316   1.080       .  S
C320        C322   1.568       .  S
C320        C324   1.561       .  S
C320        C323   1.541       .  S
C320        C512   1.520       .  S
C321        C325   1.559       .  S
C321        C327   1.554       .  S
C321        C326   1.533       .  S
C321        C531   1.512       .  S
C322        C330   1.400       .  A
C322        C325   1.391       .  A
C323        C334   1.390       .  A
C323        C326   1.373       .  A
C324        C338   1.397       .  A
C324        C327   1.389       .  A
C325        C328   1.397       .  A
C326        C332   1.387       .  A
C327        C335   1.392       .  A
C328        N329   1.359       .  A
C328        H341   1.081       .  S
N329        C330   1.361       .  A
C330        H331   1.080       .  S
C332        N333   1.363       .  A
C332        H342   1.082       .  S
N333        C334   1.364       .  A
C334        H340   1.082       .  S
C335        N336   1.365       .  A
C335        H337   1.081       .  S
N336        C338   1.369       .  A
C338        H339   1.082       .  S
C343        C345   1.542       .  S
C343        C347   1.562       .  S
C343        C346   1.531       .  S
C343        C483   1.501       .  S
C344        C348   1.535       .  S
C344        C350   1.565       .  S
C344        C349   1.552       .  S
C344        C496   1.510       .  S
C345        C353   1.391       .  A
C345        C348   1.373       .  A
C346        C357   1.378       .  A
C346        C349   1.379       .  A
C347        C361   1.397       .  A
C347        C350   1.392       .  A
C348        C351   1.383       .  A
C349        C355   1.395       .  A
C350        C358   1.395       .  A
C351        N352   1.358       .  A
C351        H364   1.082       .  S
N352        C353   1.364       .  A
C353        H354   1.082       .  S
C355        N356   1.369       .  A
C355        H365   1.081       .  S
N356        C357   1.356       .  A
C357        H363   1.083       .  S
C358        N359   1.363       .  A
C358        H360   1.082       .  S
N359        C361   1.363       .  A
C361        H362   1.081       .  S
C366        C368   1.568       .  S
C366        C370   1.545       .  S
C366        C369   1.538       .  S
C366        C464   1.490       .  S
C367        C371   1.564       .  S
C367        C373   1.560       .  S
C367        C372   1.533       .  S
C367        C451   1.495       .  S
C368        C376   1.398       .  A
C368        C371   1.389       .  A
C369        C380   1.392       .  A
C369        C372   1.366       .  A
C370        C384   1.392       .  A
C370        C373   1.377       .  A
C371        C374   1.402       .  A
C372        C378   1.386       .  A
C373        C381   1.398       .  A
C374        N375   1.371       .  A
C374        H387   1.081       .  S
N375        C376   1.367       .  A
C376        H377   1.081       .  S
C378        N379   1.362       .  A
C378        H388   1.082       .  S
N379        C380   1.368       .  A
C380        H386   1.082       .  S
C381        N382   1.361       .  A
C381        H383   1.082       .  S
N382        C384   1.358       .  A
C384        H385   1.080       .  S
O389        C397   1.264       .  A
O389      Co1813   1.929       .  S
O390        C398   1.244       .  A
O390       Co410   1.921       .  S
O391        C399   1.262       .  A
O391       Co411   2.020   1_545  S
O392        C400   1.281       .  A
O392       Co412   2.033   1_544  S
O393        C399   1.244       .  A
O393      Co1814   1.940   1_455  S
O394        C400   1.278       .  A
O394       Co409   1.981       .  S
O395        C398   1.265       .  A
O395       Co412   2.010   1_545  S
O396        C397   1.273       .  A
O396       Co411   2.025   1_544  S
C397        C691   1.453       .  S
C398        C576   1.436       .  S
C399        C499   1.461       .  S
C400        C515   1.456       .  S
O401        C414   1.247       .  A
O401      Co1111   2.006       .  S
O402        C415   1.272       .  A
O402      Co2516   2.013   1_455  S
O403        C416   1.285       .  A
O403      Co1113   2.016   1_554  S
O404        C417   1.241       .  A
O404      Co1114   1.912       .  S
O405        C417   1.272       .  A
O405      Co1112   2.046       .  S
O406        C416   1.275       .  A
O406      Co2515   1.901       .  S
O407        C414   1.235       .  A
O407      Co1114   1.942   1_554  S
O408        C415   1.254       .  A
O408      Co1113   1.935       .  S
Co409      O1793   1.929       .  S
Co409      O1103   2.006   1_545  S
Co409      O2512   1.901   1_545  S
Co409       O413   1.912   1_554  S
Co410      O1797   1.940       .  S
Co410      O2508   2.013   1_545  S
Co410      O1107   2.046   1_545  S
Co410       O413   2.017       .  S
Co411      O1105   2.016   1_556  S
Co411      O1110   1.935       .  S
Co411      O1817   2.113   1_465  S
Co412      O1106   1.912       .  S
Co412      O1109   1.942   1_556  S
Co412       O413   1.998   1_565  S
O413      Co1815   2.113   1_545  S
C414        C656   1.457       .  S
C415        C611   1.440       .  S
C416        C448   1.449       .  S
C417        C563   1.468       .  S
O418        C426   1.258       .  A
O418       Co438   1.937       .  S
O419        C427   1.247       .  A
O419       Co439   1.937       .  S
O420        C428   1.270       .  A
O420       Co440   2.024       .  S
O421        C429   1.268       .  A
O421       Co441   2.034       .  S
O422        C428   1.251       .  A
O422       Co439   1.926       .  S
O423        C429   1.229       .  A
O423       Co438   1.868       .  S
O424        C427   1.258       .  A
O424       Co441   1.987       .  S
O425        C426   1.273       .  A
O425       Co440   2.005       .  S
C426        C528   1.461       .  S
C427        C547   1.431       .  S
C428        C643   1.459       .  S
C429        C592   1.431       .  S
O430        C443   1.287       .  A
O430       Co438   2.055       .  S
O431        C444   1.267       .  A
O431       Co439   2.025       .  S
O432        C445   1.243       .  A
O432       Co440   1.947       .  S
O433        C446   1.262       .  A
O433       Co441   1.956       .  S
O434        C446   1.275       .  A
O434       Co439   2.014       .  S
O435        C445   1.239       .  A
O435       Co438   1.914       .  S
O436        C443   1.266       .  A
O436       Co441   1.862       .  S
O437        C444   1.237       .  A
O437       Co440   1.910       .  S
Co438       O442   2.005       .  S
Co439       O442   1.984       .  S
Co440       O442   1.995       .  S
Co441       O442   1.938       .  S
C443        C480   1.455       .  S
C444        C467   1.434       .  S
C445        C672   1.429       .  S
C446        C627   1.466       .  S
C447        C448   1.408       .  A
C447        C452   1.386       .  A
C447        H454   1.084       .  S
C448        C449   1.404       .  A
C449        C456   1.509       .  S
C449        C450   1.383       .  A
C450        C451   1.408       .  A
C450        H455   1.080       .  S
C451        C452   1.411       .  A
C452        C453   1.510       .  S
C453        H457   1.111       .  S
C453        H458   1.104       .  S
C453        H459   1.110       .  S
C456        H460   1.105       .  S
C456        H461   1.109       .  S
C456        H462   1.111       .  S
C463        C464   1.392       .  A
C463        C468   1.383       .  A
C463        H470   1.083       .  S
C464        C465   1.417       .  A
C465        C472   1.506       .  S
C465        C466   1.387       .  A
C466        C467   1.391       .  A
C466        H471   1.085       .  S
C467        C468   1.420       .  A
C468        C469   1.507       .  S
C469        H473   1.111       .  S
C469        H474   1.109       .  S
C469        H475   1.101       .  S
C472        H476   1.111       .  S
C472        H477   1.107       .  S
C472        H478   1.108       .  S
C479        C480   1.398       .  A
C479        C484   1.387       .  A
C479        H486   1.085       .  S
C480        C481   1.416       .  A
C481        C488   1.510       .  S
C481        C482   1.387       .  A
C482        C483   1.397       .  A
C482        H487   1.077       .  S
C483        C484   1.423       .  A
C484        C485   1.513       .  S
C485        H489   1.111       .  S
C485        H490   1.110       .  S
C485        H491   1.103       .  S
C488        H492   1.109       .  S
C488        H493   1.110       .  S
C488        H494   1.111       .  S
C495        C496   1.405       .  A
C495        C500   1.388       .  A
C495        H502   1.078       .  S
C496        C497   1.423       .  A
C497        C504   1.510       .  S
C497        C498   1.395       .  A
C498        C499   1.400       .  A
C498        H503   1.083       .  S
C499        C500   1.405       .  A
C500        C501   1.497       .  S
C501        H505   1.111       .  S
C501        H506   1.107       .  S
C501        H507   1.109       .  S
C504        H508   1.110       .  S
C504        H509   1.103       .  S
C504        H510   1.111       .  S
C511        C512   1.404       .  A
C511        C516   1.390       .  A
C511        H518   1.075       .  S
C512        C513   1.423       .  A
C513        C520   1.511       .  S
C513        C514   1.403       .  A
C514        C515   1.395       .  A
C514        H519   1.082       .  S
C515        C516   1.405       .  A
C516        C517   1.508       .  S
C517        H521   1.111       .  S
C517        H522   1.110       .  S
C517        H523   1.108       .  S
C520        H524   1.103       .  S
C520        H525   1.103       .  S
C520        H526   1.110       .  S
C527        C528   1.402       .  A
C527        C532   1.395       .  A
C527        H534   1.085       .  S
C528        C529   1.411       .  A
C529        C536   1.508       .  S
C529        C530   1.389       .  A
C530        C531   1.403       .  A
C530        H535   1.079       .  S
C531        C532   1.420       .  A
C532        C533   1.510       .  S
C533        H537   1.111       .  S
C533        H538   1.110       .  S
C533        H539   1.105       .  S
C536        H540   1.110       .  S
C536        H541   1.105       .  S
C536        H542   1.111       .  S
C543        C544   1.397       .  A
C543        C548   1.377       .  A
C543        H550   1.072       .  S
C544        C545   1.428       .  A
C545        C552   1.509       .  S
C545        C546   1.394       .  A
C546        C547   1.390       .  A
C546        H551   1.085       .  S
C547        C548   1.404       .  A
C548        C549   1.511       .  S
C549        H553   1.111       .  S
C549        H554   1.101       .  S
C549        H555   1.109       .  S
C552        H556   1.111       .  S
C552        H557   1.103       .  S
C552        H558   1.110       .  S
C559        C560   1.406       .  A
C559        C564   1.395       .  A
C559        H566   1.080       .  S
C560        C561   1.408       .  A
C561        C568   1.511       .  S
C561        C562   1.391       .  A
C562        C563   1.413       .  A
C562        H567   1.085       .  S
C563        C564   1.407       .  A
C564        C565   1.506       .  S
C565       H1271   1.111       .  S
C565       H1272   1.110       .  S
C565       H1273   1.107       .  S
C568        H572   1.110       .  S
C568        H573   1.106       .  S
C568        H574   1.110       .  S
H569       C1267   1.111   1_545  S
H570       C1267   1.110   1_545  S
H571       C1267   1.107   1_545  S
C575        C576   1.405       .  A
C575        C580   1.395       .  A
C575        H582   1.085       .  S
C576        C577   1.392       .  A
C577        C584   1.500       .  S
C577        C578   1.380       .  A
C578        C579   1.404       .  A
C578        H583   1.078       .  S
C579        C580   1.414       .  A
C580        C581   1.508       .  S
C581        H585   1.111       .  S
C581        H586   1.106       .  S
C581        H587   1.110       .  S
C584        H588   1.102       .  S
C584        H589   1.107       .  S
C584        H590   1.110       .  S
C591        C592   1.397       .  A
C591        C596   1.385       .  A
C591        H598   1.086       .  S
C592        C593   1.396       .  A
C593        C600   1.509       .  S
C593        C594   1.385       .  A
C594        C595   1.401       .  A
C594        H599   1.067       .  S
C595        C596   1.427       .  A
C596        C597   1.516       .  S
C597        H601   1.110       .  S
C597        H602   1.108       .  S
C597        H603   1.102       .  S
C600        H604   1.106       .  S
C600        H605   1.108       .  S
C600        H606   1.110       .  S
C607        C608   1.413       .  A
C607        C612   1.390       .  A
C607        H614   1.081       .  S
C608        C609   1.415       .  A
C609        C616   1.512       .  S
C609        C610   1.389       .  A
C610        C611   1.397       .  A
C610        H615   1.083       .  S
C611        C612   1.396       .  A
C612        C613   1.503       .  S
C613        H617   1.111       .  S
C613        H618   1.110   1_455  S
C613        H619   1.107   1_455  S
C616        H620   1.104       .  S
C616        H621   1.110       .  S
C616        H622   1.104       .  S
C623        C624   1.411       .  A
C623        C628   1.399       .  A
C623        H630   1.076       .  S
C624        C625   1.422       .  A
C625        C632   1.511       .  S
C625        C626   1.391       .  A
C626        C627   1.399       .  A
C626        H631   1.081       .  S
C627        C628   1.407       .  A
C628        C629   1.509       .  S
C629        H633   1.111       .  S
C629        H634   1.109       .  S
C629        H635   1.109       .  S
C632        H636   1.110       .  S
C632        H637   1.102       .  S
C632        H638   1.111       .  S
C639        C640   1.393       .  A
C639        C644   1.382       .  A
C639        H646   1.079       .  S
C640        C641   1.412       .  A
C641        C648   1.510       .  S
C641        C642   1.391       .  A
C642        C643   1.408       .  A
C642        H647   1.085       .  S
C643        C644   1.411       .  A
C644        C645   1.500       .  S
C645        H649   1.112       .  S
C645        H650   1.109       .  S
C645        H651   1.101       .  S
C648        H652   1.106       .  S
C648        H653   1.110       .  S
C648        H654   1.111       .  S
C655        C656   1.393       .  A
C655        C660   1.393       .  A
C655        H662   1.080       .  S
C656        C657   1.414       .  A
C657        C664   1.512       .  S
C657        C658   1.389       .  A
C658        C659   1.401       .  A
C658        H663   1.076       .  S
C659        C660   1.425       .  A
C660        C661   1.512       .  S
C661        H665   1.111       .  S
C661        H666   1.103       .  S
C661        H667   1.110       .  S
C664        H668   1.109       .  S
C664        H669   1.111       .  S
C664        H670   1.111       .  S
C671        C672   1.397       .  A
C671        C676   1.381       .  A
C671        H678   1.085       .  S
C672        C673   1.408       .  A
C673        C680   1.511       .  S
C673        C674   1.374       .  A
C674        C675   1.391       .  A
C674        H679   1.073       .  S
C675        C676   1.424       .  A
C676        C677   1.517       .  S
C677        H681   1.111       .  S
C677        H682   1.100       .  S
C677        H683   1.101       .  S
C680        H684   1.104       .  S
C680        H685   1.111       .  S
C680        H686   1.111       .  S
C687        C688   1.407       .  A
C687        C692   1.393       .  A
C687        H694   1.074       .  S
C688        C689   1.422       .  A
C689        C696   1.512       .  S
C689        C690   1.391       .  A
C690        C691   1.399       .  A
C690        H695   1.085       .  S
C691        C692   1.402       .  A
C692        C693   1.508       .  S
C693        H697   1.111       .  S
C693        H698   1.110       .  S
C693        H699   1.108       .  S
C696        H700   1.111       .  S
C696        H701   1.103       .  S
C696        H702   1.110       .  S
C703        C705   1.542       .  S
C703        C707   1.558       .  S
C703        C706   1.566       .  S
C703       C1390   1.513       .  S
C704        C708   1.529       .  S
C704        C710   1.535       .  S
C704        C709   1.563       .  S
C704       C1377   1.492       .  S
C705        C713   1.390       .  A
C705        C708   1.370       .  A
C706        C717   1.398       .  A
C706        C709   1.395       .  A
C707        C721   1.395       .  A
C707        C710   1.379       .  A
C708        C711   1.386       .  A
C709        C715   1.399       .  A
C710        C718   1.385       .  A
C711        N712   1.360       .  A
C711        H724   1.083       .  S
N712        C713   1.365       .  A
N712        C985   1.459       .  S
C713        H714   1.082       .  S
C715        N716   1.357       .  A
C715        H725   1.080       .  S
N716        C717   1.359       .  A
N716        C746   1.463       .  S
C717        H723   1.079       .  S
C718        N719   1.357       .  A
C718        H720   1.082       .  S
N719        C721   1.370       .  A
N719        C804   1.461       .  S
C721        H722   1.082       .  S
N726        C731   1.359       .  A
N726       C2134   1.359       .  A
N726        H758   1.040       .  S
N727        C734   1.360       .  A
N727        C735   1.360       .  A
N728        C733   1.363       .  A
N728       C2136   1.361       .  A
N728        H759   1.040       .  S
N729        C736   1.359       .  A
N729        C737   1.360       .  A
C730        C738   1.385       .  A
C730        C746   1.423       .  A
C730       N2130   1.359   1_455  A
C731        C747   1.426       .  A
C731        C739   1.387       .  A
C732        C740   1.387       .  A
C732        C749   1.431       .  A
C732       N2132   1.361   1_455  A
C733        C748   1.430       .  A
C733        C741   1.386       .  A
C734        C746   1.428       .  A
C734        C742   1.386       .  A
C735        C749   1.426       .  A
C735        C743   1.386       .  A
C736        C744   1.385       .  A
C736        C747   1.426       .  A
C737        C745   1.386       .  A
C737        C748   1.428       .  A
C738       C2143   1.380   1_455  A
C738        H750   1.082       .  S
C739       C2142   1.380       .  A
C739        H751   1.082       .  S
C740       C2145   1.381   1_455  A
C740        H752   1.082       .  S
C741       C2144   1.381       .  A
C741        H753   1.082       .  S
C742        C743   1.377       .  A
C742        H754   1.082       .  S
C743        H755   1.082       .  S
C744        C745   1.377       .  A
C744        H756   1.082       .  S
C745        H757   1.082       .  S
C747       N1035   1.461       .  S
C748        N776   1.468       .  S
C749       N1081   1.465       .  S
C760        C762   1.559       .  S
C760        C764   1.544       .  S
C760        C763   1.542       .  S
C760       C1342   1.504       .  S
C761        C765   1.570       .  S
C761        C767   1.549       .  S
C761        C766   1.546       .  S
C761       C1361   1.510       .  S
C762        C770   1.395       .  A
C762        C765   1.389       .  A
C763        C774   1.389       .  A
C763        C766   1.379       .  A
C764        C778   1.391       .  A
C764        C767   1.376       .  A
C765        C768   1.404       .  A
C766        C772   1.390       .  A
C767        C775   1.395       .  A
C768        N769   1.366       .  A
C768        H781   1.081       .  S
N769        C770   1.352       .  A
N769        C951   1.464       .  S
C770        H771   1.081       .  S
C772        N773   1.364       .  A
C772        H782   1.082       .  S
N773        C774   1.366       .  A
N773        C837   1.463       .  S
C774        H780   1.082       .  S
C775        N776   1.367       .  A
C775        H777   1.082       .  S
N776        C778   1.363       .  A
C778        H779   1.081       .  S
N783        C788   1.356       .  A
N783        H815   1.039       .  S
N784        C791   1.360       .  A
N784        C792   1.360       .  A
N785        C790   1.361       .  A
N785        H816   1.038       .  S
N786        C793   1.362       .  A
N786        C794   1.361       .  A
C787        C795   1.384       .  A
C787        C803   1.417       .  A
C788        C804   1.420       .  A
C788        C796   1.386       .  A
C789        C797   1.386       .  A
C789        C806   1.430       .  A
C790        C805   1.431       .  A
C790        C798   1.387       .  A
C791        C803   1.424       .  A
C791        C799   1.382       .  A
C792        C806   1.425       .  A
C792        C800   1.385       .  A
C793        C801   1.385       .  A
C793        C804   1.430       .  A
C794        C802   1.386       .  A
C794        C805   1.430       .  A
C795        H807   1.082       .  S
C796        H808   1.081       .  S
C797        H809   1.082       .  S
C798        H810   1.082       .  S
C799        C800   1.377       .  A
C799        H811   1.080       .  S
C800        H812   1.082       .  S
C801        C802   1.379       .  A
C801        H813   1.082       .  S
C802        H814   1.082       .  S
C803       N1084   1.461       .  S
C805       N1061   1.466       .  S
C806        N867   1.466       .  S
N817        C822   1.359       .  A
N817        H849   1.043       .  S
N818        C825   1.359       .  A
N818        C826   1.358       .  A
N819        C824   1.363       .  A
N819        H850   1.043       .  S
N820        C827   1.362       .  A
N820        C828   1.363       .  A
C821        C829   1.386       .  A
C821        C837   1.427       .  A
C822        C838   1.427       .  A
C822        C830   1.386       .  A
C823        C831   1.388       .  A
C823        C840   1.432       .  A
C824        C839   1.429       .  A
C824        C832   1.385       .  A
C825        C837   1.425       .  A
C825        C833   1.386       .  A
C826        C840   1.422       .  A
C826        C834   1.385       .  A
C827        C835   1.386       .  A
C827        C838   1.433       .  A
C828        C836   1.386       .  A
C828        C839   1.433       .  A
C829        H841   1.082       .  S
C830        H842   1.082       .  S
C831        H843   1.082       .  S
C832        H844   1.082       .  S
C833        C834   1.375       .  A
C833        H845   1.081       .  S
C834        H846   1.082       .  S
C835        C836   1.378       .  A
C835        H847   1.082       .  S
C836        H848   1.082       .  S
C838       N1031   1.465       .  S
C839        N917   1.472       .  S
C840       N1012   1.462       .  S
C851        C853   1.558       .  S
C851        C855   1.534       .  S
C851        C854   1.547       .  S
C851       C1310   1.504       .  S
C852        C856   1.567       .  S
C852        C858   1.544       .  S
C852        C857   1.570       .  S
C852       C1326   1.518       .  S
C853        C861   1.395       .  A
C853        C856   1.389       .  A
C854        C865   1.388       .  A
C854        C857   1.388       .  A
C855        C869   1.390       .  A
C855        C858   1.369       .  A
C856        C859   1.400       .  A
C857        C863   1.403       .  A
C858        C866   1.392       .  A
C859        N860   1.371       .  A
C859        H872   1.082       .  S
N860        C861   1.364       .  A
N860        C953   1.477       .  S
C861        H862   1.079       .  S
C863        N864   1.367       .  A
C863        H873   1.081       .  S
N864        C865   1.356       .  A
N864        C894   1.464       .  S
C865        H871   1.082       .  S
C866        N867   1.366       .  A
C866        H868   1.082       .  S
N867        C869   1.364       .  A
C869        H870   1.082       .  S
N874        C879   1.359       .  A
N874        C878   1.359       .  A
N874        H906   1.042       .  S
N875       C2286   1.361       .  A
N875        C883   1.361       .  A
N876        C881   1.362       .  A
N876        C880   1.362       .  A
N876        H907   1.042       .  S
N877       C2288   1.357       .  A
N877        C885   1.356       .  A
C878        C886   1.385       .  A
C878        C894   1.423       .  A
C879        C895   1.427       .  A
C879        C887   1.387       .  A
C880        C888   1.386       .  A
C880        C897   1.432       .  A
C881        C896   1.430       .  A
C881        C889   1.385       .  A
C882        C894   1.431       .  A
C882        C890   1.386       .  A
C882       N2279   1.361   1_455  A
C883        C897   1.429       .  A
C883        C891   1.385       .  A
C884        C892   1.384       .  A
C884        C895   1.417       .  A
C884       N2281   1.357   1_455  A
C885        C893   1.386       .  A
C885        C896   1.420       .  A
C886        C887   1.380       .  A
C886        H898   1.082       .  S
C887        H899   1.082       .  S
C888        C889   1.382       .  A
C888        H900   1.081       .  S
C889        H901   1.082       .  S
C890       C2295   1.380   1_455  A
C890        H902   1.082       .  S
C891       C2294   1.380       .  A
C891        H903   1.082       .  S
C892       C2297   1.373   1_455  A
C892        H904   1.082       .  S
C893       C2296   1.373       .  A
C893        H905   1.081       .  S
C895       N1058   1.458       .  S
C896        N921   1.463       .  S
C897       N1015   1.469       .  S
C908        C910   1.545       .  S
C908        C912   1.545       .  S
C908        C911   1.561       .  S
C908       C1297   1.500       .  S
C909        C913   1.556       .  S
C909        C915   1.559       .  S
C909        C914   1.543       .  S
C909       C1281   1.507       .  S
C910        C918   1.388       .  A
C910        C913   1.378       .  A
C911        C922   1.400       .  A
C911        C914   1.387       .  A
C912        C926   1.394       .  A
C912        C915   1.376       .  A
C913        C916   1.400       .  A
C914        C920   1.385       .  A
C915        C923   1.395       .  A
C916        N917   1.372       .  A
C916        H929   1.081       .  S
N917        C918   1.362       .  A
C918        H919   1.082       .  S
C920        N921   1.363       .  A
C920        H930   1.082       .  S
N921        C922   1.360       .  A
C922        H928   1.077       .  S
C923        N924   1.355       .  A
C923        H925   1.081       .  S
N924        C926   1.363       .  A
N924        C987   1.459       .  S
C926        H927   1.082       .  S
N931        C936   1.368       .  A
N931        C935   1.367       .  A
N931        H963   1.024       .  S
N932        C939   1.357   1_556  A
N932        C940   1.357       .  A
N933        C938   1.365       .  A
N933        C937   1.367       .  A
N933        H964   1.028       .  S
N934        C941   1.365   1_556  A
N934        C942   1.365       .  A
C935        C943   1.385       .  A
C935        C951   1.436       .  A
C936        C952   1.441       .  A
C936        C944   1.388       .  A
C937        C945   1.385       .  A
C937        C954   1.434       .  A
C938        C953   1.435       .  A
C938        C946   1.386       .  A
C939        C951   1.419       .  A
C939        C947   1.385       .  A
C940        C954   1.419       .  A
C940        C948   1.385       .  A
C941        C949   1.386       .  A
C941        C952   1.438       .  A
C942        C950   1.386       .  A
C942        C953   1.438       .  A
C943        C944   1.383       .  A
C943        H955   1.082       .  S
C944        H956   1.081       .  S
C945        C946   1.381       .  A
C945        H957   1.082       .  S
C946        H958   1.080       .  S
C947        C948   1.373   1_554  A
C947        H959   1.082       .  S
C948        H960   1.082       .  S
C949        C950   1.382   1_554  A
C949        H961   1.081       .  S
C950        H962   1.082       .  S
C952       N1077   1.480       .  S
C954       N1008   1.466       .  S
N965        C970   1.363       .  A
N965        C969   1.361       .  A
N965        H997   1.040       .  S
N966        C973   1.356       .  A
N966        C974   1.357   1_554  A
N967        C972   1.355       .  A
N967        C971   1.358       .  A
N967        H998   1.041       .  S
N968        C975   1.362   1_556  A
N968        C976   1.360       .  A
C969        C977   1.385       .  A
C969        C985   1.429       .  A
C970        C986   1.429       .  A
C970        C978   1.385       .  A
C971        C979   1.385       .  A
C971        C988   1.418       .  A
C972        C987   1.416       .  A
C972        C980   1.383       .  A
C973        C985   1.421       .  A
C973        C981   1.386       .  A
C974        C988   1.422       .  A
C974        C982   1.385       .  A
C975        C983   1.384       .  A
C975        C986   1.429       .  A
C976        C984   1.386       .  A
C976        C987   1.429       .  A
C977        C978   1.381       .  A
C977        H989   1.079       .  S
C978        H990   1.082       .  S
C979        C980   1.377       .  A
C979        H991   1.082       .  S
C980        H992   1.080       .  S
C981        C982   1.376   1_554  A
C981        H993   1.082       .  S
C982        H994   1.082       .  S
C983        C984   1.380   1_554  A
C983        H995   1.080       .  S
C984        H996   1.082       .  S
C986       N1038   1.470       .  S
C988       N1054   1.457       .  S
C999       C1001   1.550       .  S
C999       C1003   1.561       .  S
C999       C1002   1.555       .  S
C999       C1262   1.514       .  S
C1000      C1004   1.531       .  S
C1000      C1006   1.549       .  S
C1000      C1005   1.568       .  S
C1000      C1246   1.507       .  S
C1001      C1009   1.396       .  A
C1001      C1004   1.374       .  A
C1002      C1013   1.393       .  A
C1002      C1005   1.388       .  A
C1003      C1017   1.396       .  A
C1003      C1006   1.386       .  A
C1004      C1007   1.385       .  A
C1005      C1011   1.402       .  A
C1006      C1014   1.392       .  A
C1007      N1008   1.358       .  A
C1007      H1020   1.082       .  S
N1008      C1009   1.373       .  A
C1009      H1010   1.082       .  S
C1011      N1012   1.361       .  A
C1011      H1021   1.080       .  S
N1012      C1013   1.354       .  A
C1013      H1019   1.081       .  S
C1014      N1015   1.365       .  A
C1014      H1016   1.082       .  S
N1015      C1017   1.366       .  A
C1017      H1018   1.080       .  S
C1022      C1024   1.568       .  S
C1022      C1026   1.561       .  S
C1022      C1025   1.541       .  S
C1022      C1214   1.520       .  S
C1023      C1027   1.559       .  S
C1023      C1029   1.554       .  S
C1023      C1028   1.533       .  S
C1023      C1233   1.512       .  S
C1024      C1032   1.400       .  A
C1024      C1027   1.391       .  A
C1025      C1036   1.390       .  A
C1025      C1028   1.373       .  A
C1026      C1040   1.397       .  A
C1026      C1029   1.389       .  A
C1027      C1030   1.397       .  A
C1028      C1034   1.387       .  A
C1029      C1037   1.392       .  A
C1030      N1031   1.359       .  A
C1030      H1043   1.081       .  S
N1031      C1032   1.361       .  A
C1032      H1033   1.080       .  S
C1034      N1035   1.363       .  A
C1034      H1044   1.082       .  S
N1035      C1036   1.364       .  A
C1036      H1042   1.082       .  S
C1037      N1038   1.365       .  A
C1037      H1039   1.081       .  S
N1038      C1040   1.369       .  A
C1040      H1041   1.082       .  S
C1045      C1047   1.542       .  S
C1045      C1049   1.562       .  S
C1045      C1048   1.531       .  S
C1045      C1185   1.501       .  S
C1046      C1050   1.535       .  S
C1046      C1052   1.565       .  S
C1046      C1051   1.552       .  S
C1046      C1198   1.510       .  S
C1047      C1055   1.391       .  A
C1047      C1050   1.373       .  A
C1048      C1059   1.378       .  A
C1048      C1051   1.379       .  A
C1049      C1063   1.397       .  A
C1049      C1052   1.392       .  A
C1050      C1053   1.383       .  A
C1051      C1057   1.395       .  A
C1052      C1060   1.395       .  A
C1053      N1054   1.358       .  A
C1053      H1066   1.082       .  S
N1054      C1055   1.364       .  A
C1055      H1056   1.082       .  S
C1057      N1058   1.369       .  A
C1057      H1067   1.081       .  S
N1058      C1059   1.356       .  A
C1059      H1065   1.083       .  S
C1060      N1061   1.363       .  A
C1060      H1062   1.082       .  S
N1061      C1063   1.363       .  A
C1063      H1064   1.081       .  S
C1068      C1070   1.568       .  S
C1068      C1072   1.545       .  S
C1068      C1071   1.538       .  S
C1068      C1166   1.490       .  S
C1069      C1073   1.564       .  S
C1069      C1075   1.560       .  S
C1069      C1074   1.533       .  S
C1069      C1153   1.495       .  S
C1070      C1078   1.398       .  A
C1070      C1073   1.389       .  A
C1071      C1082   1.392       .  A
C1071      C1074   1.366       .  A
C1072      C1086   1.392       .  A
C1072      C1075   1.377       .  A
C1073      C1076   1.402       .  A
C1074      C1080   1.386       .  A
C1075      C1083   1.398       .  A
C1076      N1077   1.371       .  A
C1076      H1089   1.081       .  S
N1077      C1078   1.367       .  A
C1078      H1079   1.081       .  S
C1080      N1081   1.362       .  A
C1080      H1090   1.082       .  S
N1081      C1082   1.368       .  A
C1082      H1088   1.082       .  S
C1083      N1084   1.361       .  A
C1083      H1085   1.082       .  S
N1084      C1086   1.358       .  A
C1086      H1087   1.080       .  S
O1091      C1099   1.264       .  A
O1091     Co2515   1.929       .  S
O1092      C1100   1.244       .  A
O1092     Co1112   1.921       .  S
O1093      C1101   1.262       .  A
O1093     Co1113   2.020       .  S
O1094      C1102   1.281       .  A
O1094     Co1114   2.033   1_554  S
O1095      C1101   1.244       .  A
O1095     Co2516   1.940   1_455  S
O1096      C1102   1.278       .  A
O1096     Co1111   1.981       .  S
O1097      C1100   1.265       .  A
O1097     Co1114   2.010       .  S
O1098      C1099   1.273       .  A
O1098     Co1113   2.025   1_554  S
C1099      C1393   1.453       .  S
C1100      C1278   1.436       .  S
C1101      C1201   1.461       .  S
C1102      C1217   1.456       .  S
O1103      C1116   1.247       .  A
O1104      C1117   1.272       .  A
O1104     Co1814   2.013   1_465  S
O1105      C1118   1.285       .  A
O1106      C1119   1.241       .  A
O1107      C1119   1.272       .  A
O1108      C1118   1.275       .  A
O1108     Co1813   1.901   1_565  S
O1109      C1116   1.235       .  A
O1110      C1117   1.254       .  A
Co1111     O2495   1.929       .  S
Co1111     O1810   1.901       .  S
Co1111     O1115   1.912   1_554  S
Co1112     O2499   1.940       .  S
Co1112     O1806   2.013       .  S
Co1112     O1115   2.017       .  S
Co1113     O2519   2.113   1_455  S
Co1114     O1115   1.998       .  S
O1115     Co2517   2.113       .  S
C1116      C1358   1.457       .  S
C1117      C1313   1.440       .  S
C1118      C1150   1.449       .  S
C1119      C1265   1.468       .  S
O1120      C1128   1.258       .  A
O1120     Co1140   1.937       .  S
O1121      C1129   1.247       .  A
O1121     Co1141   1.937       .  S
O1122      C1130   1.270       .  A
O1122     Co1142   2.024       .  S
O1123      C1131   1.268       .  A
O1123     Co1143   2.034       .  S
O1124      C1130   1.251       .  A
O1124     Co1141   1.926       .  S
O1125      C1131   1.229       .  A
O1125     Co1140   1.868       .  S
O1126      C1129   1.258       .  A
O1126     Co1143   1.987       .  S
O1127      C1128   1.273       .  A
O1127     Co1142   2.005       .  S
C1128      C1230   1.461       .  S
C1129      C1249   1.431       .  S
C1130      C1345   1.459       .  S
C1131      C1294   1.431       .  S
O1132      C1145   1.287       .  A
O1132     Co1140   2.055       .  S
O1133      C1146   1.267       .  A
O1133     Co1141   2.025       .  S
O1134      C1147   1.243       .  A
O1134     Co1142   1.947       .  S
O1135      C1148   1.262       .  A
O1135     Co1143   1.956       .  S
O1136      C1148   1.275       .  A
O1136     Co1141   2.014       .  S
O1137      C1147   1.239       .  A
O1137     Co1140   1.914       .  S
O1138      C1145   1.266       .  A
O1138     Co1143   1.862       .  S
O1139      C1146   1.237       .  A
O1139     Co1142   1.910       .  S
Co1140     O1144   2.005       .  S
Co1141     O1144   1.984       .  S
Co1142     O1144   1.995       .  S
Co1143     O1144   1.938       .  S
C1145      C1182   1.455       .  S
C1146      C1169   1.434       .  S
C1147      C1374   1.429       .  S
C1148      C1329   1.466       .  S
C1149      C1150   1.408       .  A
C1149      C1154   1.386       .  A
C1149      H1156   1.084       .  S
C1150      C1151   1.404       .  A
C1151      C1158   1.509       .  S
C1151      C1152   1.383       .  A
C1152      C1153   1.408       .  A
C1152      H1157   1.080       .  S
C1153      C1154   1.411       .  A
C1154      C1155   1.510       .  S
C1155      H1159   1.111       .  S
C1155      H1160   1.104       .  S
C1155      H1161   1.110       .  S
C1158      H1162   1.105       .  S
C1158      H1163   1.109       .  S
C1158      H1164   1.111       .  S
C1165      C1166   1.392       .  A
C1165      C1170   1.383       .  A
C1165      H1172   1.083       .  S
C1166      C1167   1.417       .  A
C1167      C1174   1.506       .  S
C1167      C1168   1.387       .  A
C1168      C1169   1.391       .  A
C1168      H1173   1.085       .  S
C1169      C1170   1.420       .  A
C1170      C1171   1.507       .  S
C1171      H1175   1.111       .  S
C1171      H1176   1.109       .  S
C1171      H1177   1.101       .  S
C1174      H1178   1.111       .  S
C1174      H1179   1.107       .  S
C1174      H1180   1.108       .  S
C1181      C1182   1.398       .  A
C1181      C1186   1.387       .  A
C1181      H1188   1.085       .  S
C1182      C1183   1.416       .  A
C1183      C1190   1.510       .  S
C1183      C1184   1.387       .  A
C1184      C1185   1.397       .  A
C1184      H1189   1.077       .  S
C1185      C1186   1.423       .  A
C1186      C1187   1.513       .  S
C1187      H1191   1.111       .  S
C1187      H1192   1.110       .  S
C1187      H1193   1.103       .  S
C1190      H1194   1.109       .  S
C1190      H1195   1.110       .  S
C1190      H1196   1.111       .  S
C1197      C1198   1.405       .  A
C1197      C1202   1.388       .  A
C1197      H1204   1.078       .  S
C1198      C1199   1.423       .  A
C1199      C1206   1.510       .  S
C1199      C1200   1.395       .  A
C1200      C1201   1.400       .  A
C1200      H1205   1.083       .  S
C1201      C1202   1.405       .  A
C1202      C1203   1.497       .  S
C1203      H1207   1.111       .  S
C1203      H1208   1.107       .  S
C1203      H1209   1.109       .  S
C1206      H1210   1.110       .  S
C1206      H1211   1.103       .  S
C1206      H1212   1.111       .  S
C1213      C1214   1.404       .  A
C1213      C1218   1.390       .  A
C1213      H1220   1.075       .  S
C1214      C1215   1.423       .  A
C1215      C1222   1.511       .  S
C1215      C1216   1.403       .  A
C1216      C1217   1.395       .  A
C1216      H1221   1.082       .  S
C1217      C1218   1.405       .  A
C1218      C1219   1.508       .  S
C1219      H1223   1.111       .  S
C1219      H1224   1.110       .  S
C1219      H1225   1.108       .  S
C1222      H1226   1.103       .  S
C1222      H1227   1.103       .  S
C1222      H1228   1.110       .  S
C1229      C1230   1.402       .  A
C1229      C1234   1.395       .  A
C1229      H1236   1.085       .  S
C1230      C1231   1.411       .  A
C1231      C1238   1.508       .  S
C1231      C1232   1.389       .  A
C1232      C1233   1.403       .  A
C1232      H1237   1.079       .  S
C1233      C1234   1.420       .  A
C1234      C1235   1.510       .  S
C1235      H1239   1.111       .  S
C1235      H1240   1.110       .  S
C1235      H1241   1.105       .  S
C1238      H1242   1.110       .  S
C1238      H1243   1.105       .  S
C1238      H1244   1.111       .  S
C1245      C1246   1.397       .  A
C1245      C1250   1.377       .  A
C1245      H1252   1.072       .  S
C1246      C1247   1.428       .  A
C1247      C1254   1.509       .  S
C1247      C1248   1.394       .  A
C1248      C1249   1.390       .  A
C1248      H1253   1.085       .  S
C1249      C1250   1.404       .  A
C1250      C1251   1.511       .  S
C1251      H1255   1.111       .  S
C1251      H1256   1.101       .  S
C1251      H1257   1.109       .  S
C1254      H1258   1.111       .  S
C1254      H1259   1.103       .  S
C1254      H1260   1.110       .  S
C1261      C1262   1.406       .  A
C1261      C1266   1.395       .  A
C1261      H1268   1.080       .  S
C1262      C1263   1.408       .  A
C1263      C1270   1.511       .  S
C1263      C1264   1.391       .  A
C1264      C1265   1.413       .  A
C1264      H1269   1.085       .  S
C1265      C1266   1.407       .  A
C1266      C1267   1.506       .  S
C1270      H1274   1.110       .  S
C1270      H1275   1.106       .  S
C1270      H1276   1.110       .  S
C1277      C1278   1.405       .  A
C1277      C1282   1.395       .  A
C1277      H1284   1.085       .  S
C1278      C1279   1.392       .  A
C1279      C1286   1.500       .  S
C1279      C1280   1.380       .  A
C1280      C1281   1.404       .  A
C1280      H1285   1.078       .  S
C1281      C1282   1.414       .  A
C1282      C1283   1.508       .  S
C1283      H1287   1.111       .  S
C1283      H1288   1.106       .  S
C1283      H1289   1.110       .  S
C1286      H1290   1.102       .  S
C1286      H1291   1.107       .  S
C1286      H1292   1.110       .  S
C1293      C1294   1.397       .  A
C1293      C1298   1.385       .  A
C1293      H1300   1.086       .  S
C1294      C1295   1.396       .  A
C1295      C1302   1.509       .  S
C1295      C1296   1.385       .  A
C1296      C1297   1.401       .  A
C1296      H1301   1.067       .  S
C1297      C1298   1.427       .  A
C1298      C1299   1.516       .  S
C1299      H1303   1.110       .  S
C1299      H1304   1.108       .  S
C1299      H1305   1.102       .  S
C1302      H1306   1.106       .  S
C1302      H1307   1.108       .  S
C1302      H1308   1.110       .  S
C1309      C1310   1.413       .  A
C1309      C1314   1.390       .  A
C1309      H1316   1.081       .  S
C1310      C1311   1.415       .  A
C1311      C1318   1.512       .  S
C1311      C1312   1.389       .  A
C1312      C1313   1.397       .  A
C1312      H1317   1.083       .  S
C1313      C1314   1.396       .  A
C1314      C1315   1.503       .  S
C1315      H1319   1.111       .  S
C1315      H1320   1.110   1_455  S
C1315      H1321   1.107   1_455  S
C1318      H1322   1.104       .  S
C1318      H1323   1.110       .  S
C1318      H1324   1.104       .  S
C1325      C1326   1.411       .  A
C1325      C1330   1.399       .  A
C1325      H1332   1.076       .  S
C1326      C1327   1.422       .  A
C1327      C1334   1.511       .  S
C1327      C1328   1.391       .  A
C1328      C1329   1.399       .  A
C1328      H1333   1.081       .  S
C1329      C1330   1.407       .  A
C1330      C1331   1.509       .  S
C1331      H1335   1.111       .  S
C1331      H1336   1.109       .  S
C1331      H1337   1.109       .  S
C1334      H1338   1.110       .  S
C1334      H1339   1.102       .  S
C1334      H1340   1.111       .  S
C1341      C1342   1.393       .  A
C1341      C1346   1.382       .  A
C1341      H1348   1.079       .  S
C1342      C1343   1.412       .  A
C1343      C1350   1.510       .  S
C1343      C1344   1.391       .  A
C1344      C1345   1.408       .  A
C1344      H1349   1.085       .  S
C1345      C1346   1.411       .  A
C1346      C1347   1.500       .  S
C1347      H1351   1.112       .  S
C1347      H1352   1.109       .  S
C1347      H1353   1.101       .  S
C1350      H1354   1.106       .  S
C1350      H1355   1.110       .  S
C1350      H1356   1.111       .  S
C1357      C1358   1.393       .  A
C1357      C1362   1.393       .  A
C1357      H1364   1.080       .  S
C1358      C1359   1.414       .  A
C1359      C1366   1.512       .  S
C1359      C1360   1.389       .  A
C1360      C1361   1.401       .  A
C1360      H1365   1.076       .  S
C1361      C1362   1.425       .  A
C1362      C1363   1.512       .  S
C1363      H1367   1.111       .  S
C1363      H1368   1.103       .  S
C1363      H1369   1.110       .  S
C1366      H1370   1.109       .  S
C1366      H1371   1.111       .  S
C1366      H1372   1.111       .  S
C1373      C1374   1.397       .  A
C1373      C1378   1.381       .  A
C1373      H1380   1.085       .  S
C1374      C1375   1.408       .  A
C1375      C1382   1.511       .  S
C1375      C1376   1.374       .  A
C1376      C1377   1.391       .  A
C1376      H1381   1.073       .  S
C1377      C1378   1.424       .  A
C1378      C1379   1.517       .  S
C1379      H1383   1.111       .  S
C1379      H1384   1.100       .  S
C1379      H1385   1.101       .  S
C1382      H1386   1.104       .  S
C1382      H1387   1.111       .  S
C1382      H1388   1.111       .  S
C1389      C1390   1.407       .  A
C1389      C1394   1.393       .  A
C1389      H1396   1.074       .  S
C1390      C1391   1.422       .  A
C1391      C1398   1.512       .  S
C1391      C1392   1.391       .  A
C1392      C1393   1.399       .  A
C1392      H1397   1.085       .  S
C1393      C1394   1.402       .  A
C1394      C1395   1.508       .  S
C1395      H1399   1.111       .  S
C1395      H1400   1.110       .  S
C1395      H1401   1.108       .  S
C1398      H1402   1.111       .  S
C1398      H1403   1.103       .  S
C1398      H1404   1.110       .  S
C1405      C1407   1.542       .  S
C1405      C1409   1.558       .  S
C1405      C1408   1.566       .  S
C1405      C2092   1.513       .  S
C1406      C1410   1.529       .  S
C1406      C1412   1.535       .  S
C1406      C1411   1.563       .  S
C1406      C2079   1.492       .  S
C1407      C1415   1.390       .  A
C1407      C1410   1.370       .  A
C1408      C1419   1.398       .  A
C1408      C1411   1.395       .  A
C1409      C1423   1.395       .  A
C1409      C1412   1.379       .  A
C1410      C1413   1.386       .  A
C1411      C1417   1.399       .  A
C1412      C1420   1.385       .  A
C1413      N1414   1.360       .  A
C1413      H1426   1.083       .  S
N1414      C1415   1.365       .  A
N1414      C1687   1.459       .  S
C1415      H1416   1.082       .  S
C1417      N1418   1.357       .  A
C1417      H1427   1.080       .  S
N1418      C1419   1.359       .  A
N1418      C1448   1.463       .  S
C1419      H1425   1.079       .  S
C1420      N1421   1.357       .  A
C1420      H1422   1.082       .  S
N1421      C1423   1.370       .  A
N1421      C1506   1.461       .  S
C1423      H1424   1.082       .  S
N1428      C1433   1.359       .  A
N1428      H1460   1.040       .  S
N1429      C1436   1.360       .  A
N1429      C1437   1.360       .  A
N1430      C1435   1.363       .  A
N1430      H1461   1.040       .  S
N1431      C1438   1.359       .  A
N1431      C1439   1.360       .  A
C1432      C1440   1.385       .  A
C1432      C1448   1.423       .  A
C1433      C1449   1.426       .  A
C1433      C1441   1.387       .  A
C1434      C1442   1.387       .  A
C1434      C1451   1.431       .  A
C1435      C1450   1.430       .  A
C1435      C1443   1.386       .  A
C1436      C1448   1.428       .  A
C1436      C1444   1.386       .  A
C1437      C1451   1.426       .  A
C1437      C1445   1.386       .  A
C1438      C1446   1.385       .  A
C1438      C1449   1.426       .  A
C1439      C1447   1.386       .  A
C1439      C1450   1.428       .  A
C1440      H1452   1.082       .  S
C1441      H1453   1.082       .  S
C1442      H1454   1.082       .  S
C1443      H1455   1.082       .  S
C1444      C1445   1.377       .  A
C1444      H1456   1.082       .  S
C1445      H1457   1.082       .  S
C1446      C1447   1.377       .  A
C1446      H1458   1.082       .  S
C1447      H1459   1.082       .  S
C1449      N1737   1.461       .  S
C1450      N1478   1.468       .  S
C1451      N1783   1.465       .  S
C1462      C1464   1.559       .  S
C1462      C1466   1.544       .  S
C1462      C1465   1.542       .  S
C1462      C2044   1.504       .  S
C1463      C1467   1.570       .  S
C1463      C1469   1.549       .  S
C1463      C1468   1.546       .  S
C1463      C2063   1.510       .  S
C1464      C1472   1.395       .  A
C1464      C1467   1.389       .  A
C1465      C1476   1.389       .  A
C1465      C1468   1.379       .  A
C1466      C1480   1.391       .  A
C1466      C1469   1.376       .  A
C1467      C1470   1.404       .  A
C1468      C1474   1.390       .  A
C1469      C1477   1.395       .  A
C1470      N1471   1.366       .  A
C1470      H1483   1.081       .  S
N1471      C1472   1.352       .  A
N1471      C1653   1.464       .  S
C1472      H1473   1.081       .  S
C1474      N1475   1.364       .  A
C1474      H1484   1.082       .  S
N1475      C1476   1.366       .  A
N1475      C1539   1.463       .  S
C1476      H1482   1.082       .  S
C1477      N1478   1.367       .  A
C1477      H1479   1.082       .  S
N1478      C1480   1.363       .  A
C1480      H1481   1.081       .  S
N1485      C1490   1.356       .  A
N1485      C2191   1.358   1_545  A
N1485      H1517   1.039       .  S
N1486      C1493   1.360       .  A
N1486      C1494   1.360       .  A
N1487      C1492   1.361       .  A
N1487      C2193   1.362   1_545  A
N1487      H1518   1.038       .  S
N1488      C1495   1.362       .  A
N1488      C1496   1.361       .  A
C1489      C1497   1.384       .  A
C1489      C1505   1.417       .  A
C1489      N2187   1.358       .  A
C1490      C1506   1.420       .  A
C1490      C1498   1.386       .  A
C1491      C1499   1.386       .  A
C1491      C1508   1.430       .  A
C1491      N2189   1.362       .  A
C1492      C1507   1.431       .  A
C1492      C1500   1.387       .  A
C1493      C1505   1.424       .  A
C1493      C1501   1.382       .  A
C1494      C1508   1.425       .  A
C1494      C1502   1.385       .  A
C1495      C1503   1.385       .  A
C1495      C1506   1.430       .  A
C1496      C1504   1.386       .  A
C1496      C1507   1.430       .  A
C1497      C2200   1.378       .  A
C1497      H1509   1.082       .  S
C1498      C2199   1.378   1_545  A
C1498      H1510   1.081       .  S
C1499      C2202   1.381       .  A
C1499      H1511   1.082       .  S
C1500      C2201   1.381   1_545  A
C1500      H1512   1.082       .  S
C1501      C1502   1.377       .  A
C1501      H1513   1.080       .  S
C1502      H1514   1.082       .  S
C1503      C1504   1.379       .  A
C1503      H1515   1.082       .  S
C1504      H1516   1.082       .  S
C1505      N1786   1.461       .  S
C1507      N1763   1.466       .  S
C1508      N1569   1.466       .  S
N1519      C1524   1.359       .  A
N1519      C2225   1.361   1_545  A
N1519      H1551   1.043       .  S
N1520      C1527   1.359       .  A
N1520      C1528   1.358       .  A
N1521      C1526   1.363       .  A
N1521      C2227   1.361   1_545  A
N1521      H1552   1.043       .  S
N1522      C1529   1.362       .  A
N1522      C1530   1.363       .  A
C1523      C1531   1.386       .  A
C1523      C1539   1.427       .  A
C1523      N2221   1.361       .  A
C1524      C1540   1.427       .  A
C1524      C1532   1.386       .  A
C1525      C1533   1.388       .  A
C1525      C1542   1.432       .  A
C1525      N2223   1.361       .  A
C1526      C1541   1.429       .  A
C1526      C1534   1.385       .  A
C1527      C1539   1.425       .  A
C1527      C1535   1.386       .  A
C1528      C1542   1.422       .  A
C1528      C1536   1.385       .  A
C1529      C1537   1.386       .  A
C1529      C1540   1.433       .  A
C1530      C1538   1.386       .  A
C1530      C1541   1.433       .  A
C1531      C2234   1.381       .  A
C1531      H1543   1.082       .  S
C1532      C2233   1.381   1_545  A
C1532      H1544   1.082       .  S
C1533      C2236   1.380       .  A
C1533      H1545   1.082       .  S
C1534      C2235   1.380   1_545  A
C1534      H1546   1.082       .  S
C1535      C1536   1.375       .  A
C1535      H1547   1.081       .  S
C1536      H1548   1.082       .  S
C1537      C1538   1.378       .  A
C1537      H1549   1.082       .  S
C1538      H1550   1.082       .  S
C1540      N1733   1.465       .  S
C1541      N1619   1.472       .  S
C1542      N1714   1.462       .  S
C1553      C1555   1.558       .  S
C1553      C1557   1.534       .  S
C1553      C1556   1.547       .  S
C1553      C2012   1.504       .  S
C1554      C1558   1.567       .  S
C1554      C1560   1.544       .  S
C1554      C1559   1.570       .  S
C1554      C2028   1.518       .  S
C1555      C1563   1.395       .  A
C1555      C1558   1.389       .  A
C1556      C1567   1.388       .  A
C1556      C1559   1.388       .  A
C1557      C1571   1.390       .  A
C1557      C1560   1.369       .  A
C1558      C1561   1.400       .  A
C1559      C1565   1.403       .  A
C1560      C1568   1.392       .  A
C1561      N1562   1.371       .  A
C1561      H1574   1.082       .  S
N1562      C1563   1.364       .  A
N1562      C1655   1.477       .  S
C1563      H1564   1.079       .  S
C1565      N1566   1.367       .  A
C1565      H1575   1.081       .  S
N1566      C1567   1.356       .  A
N1566      C1596   1.464       .  S
C1567      H1573   1.082       .  S
C1568      N1569   1.366       .  A
C1568      H1570   1.082       .  S
N1569      C1571   1.364       .  A
C1571      H1572   1.082       .  S
N1576      C1581   1.359       .  A
N1576      C1580   1.359       .  A
N1576      H1608   1.042       .  S
N1577      C1585   1.361       .  A
N1578      C1583   1.362       .  A
N1578      C1582   1.362       .  A
N1578      H1609   1.042       .  S
N1579      C1587   1.356       .  A
C1580      C1588   1.385       .  A
C1580      C1596   1.423       .  A
C1581      C1597   1.427       .  A
C1581      C1589   1.387       .  A
C1582      C1590   1.386       .  A
C1582      C1599   1.432       .  A
C1583      C1598   1.430       .  A
C1583      C1591   1.385       .  A
C1584      C1596   1.431       .  A
C1584      C1592   1.386       .  A
C1585      C1599   1.429       .  A
C1585      C1593   1.385       .  A
C1586      C1594   1.384       .  A
C1586      C1597   1.417       .  A
C1587      C1595   1.386       .  A
C1587      C1598   1.420       .  A
C1588      C1589   1.380       .  A
C1588      H1600   1.082       .  S
C1589      H1601   1.082       .  S
C1590      C1591   1.382       .  A
C1590      H1602   1.081       .  S
C1591      H1603   1.082       .  S
C1592      H1604   1.082       .  S
C1593      H1605   1.082       .  S
C1594      H1606   1.082       .  S
C1595      H1607   1.081       .  S
C1597      N1760   1.458       .  S
C1598      N1623   1.463       .  S
C1599      N1717   1.469       .  S
C1610      C1612   1.545       .  S
C1610      C1614   1.545       .  S
C1610      C1613   1.561       .  S
C1610      C1999   1.500       .  S
C1611      C1615   1.556       .  S
C1611      C1617   1.559       .  S
C1611      C1616   1.543       .  S
C1611      C1983   1.507       .  S
C1612      C1620   1.388       .  A
C1612      C1615   1.378       .  A
C1613      C1624   1.400       .  A
C1613      C1616   1.387       .  A
C1614      C1628   1.394       .  A
C1614      C1617   1.376       .  A
C1615      C1618   1.400       .  A
C1616      C1622   1.385       .  A
C1617      C1625   1.395       .  A
C1618      N1619   1.372       .  A
C1618      H1631   1.081       .  S
N1619      C1620   1.362       .  A
C1620      H1621   1.082       .  S
C1622      N1623   1.363       .  A
C1622      H1632   1.082       .  S
N1623      C1624   1.360       .  A
C1624      H1630   1.077       .  S
C1625      N1626   1.355       .  A
C1625      H1627   1.081       .  S
N1626      C1628   1.363       .  A
N1626      C1689   1.459       .  S
C1628      H1629   1.082       .  S
N1633      C1638   1.368       .  A
N1633      C1637   1.367       .  A
N1633      H1665   1.024       .  S
N1634      C1641   1.357   1_556  A
N1634      C1642   1.357       .  A
N1635      C1640   1.365       .  A
N1635      C1639   1.367       .  A
N1635      H1666   1.028       .  S
N1636      C1643   1.365   1_556  A
N1636      C1644   1.365       .  A
C1637      C1645   1.385       .  A
C1637      C1653   1.436       .  A
C1638      C1654   1.441       .  A
C1638      C1646   1.388       .  A
C1639      C1647   1.385       .  A
C1639      C1656   1.434       .  A
C1640      C1655   1.435       .  A
C1640      C1648   1.386       .  A
C1641      C1653   1.419       .  A
C1641      C1649   1.385       .  A
C1642      C1656   1.419       .  A
C1642      C1650   1.385       .  A
C1643      C1651   1.386       .  A
C1643      C1654   1.438       .  A
C1644      C1652   1.386       .  A
C1644      C1655   1.438       .  A
C1645      C1646   1.383       .  A
C1645      H1657   1.082       .  S
C1646      H1658   1.081       .  S
C1647      C1648   1.381       .  A
C1647      H1659   1.082       .  S
C1648      H1660   1.080       .  S
C1649      C1650   1.373   1_554  A
C1649      H1661   1.082       .  S
C1650      H1662   1.082       .  S
C1651      C1652   1.382   1_554  A
C1651      H1663   1.081       .  S
C1652      H1664   1.082       .  S
C1654      N1779   1.480       .  S
C1656      N1710   1.466       .  S
N1667      C1672   1.363       .  A
N1667      C1671   1.361       .  A
N1667      H1699   1.040       .  S
N1668      C1675   1.356       .  A
N1668      C1676   1.357   1_554  A
N1669      C1674   1.355       .  A
N1669      C1673   1.358       .  A
N1669      H1700   1.041       .  S
N1670      C1677   1.362   1_556  A
N1670      C1678   1.360       .  A
C1671      C1679   1.385       .  A
C1671      C1687   1.429       .  A
C1672      C1688   1.429       .  A
C1672      C1680   1.385       .  A
C1673      C1681   1.385       .  A
C1673      C1690   1.418       .  A
C1674      C1689   1.416       .  A
C1674      C1682   1.383       .  A
C1675      C1687   1.421       .  A
C1675      C1683   1.386       .  A
C1676      C1690   1.422       .  A
C1676      C1684   1.385       .  A
C1677      C1685   1.384       .  A
C1677      C1688   1.429       .  A
C1678      C1686   1.386       .  A
C1678      C1689   1.429       .  A
C1679      C1680   1.381       .  A
C1679      H1691   1.079       .  S
C1680      H1692   1.082       .  S
C1681      C1682   1.377       .  A
C1681      H1693   1.082       .  S
C1682      H1694   1.080       .  S
C1683      C1684   1.376   1_554  A
C1683      H1695   1.082       .  S
C1684      H1696   1.082       .  S
C1685      C1686   1.380   1_554  A
C1685      H1697   1.080       .  S
C1686      H1698   1.082       .  S
C1688      N1740   1.470       .  S
C1690      N1756   1.457       .  S
C1701      C1703   1.550       .  S
C1701      C1705   1.561       .  S
C1701      C1704   1.555       .  S
C1701      C1964   1.514       .  S
C1702      C1706   1.531       .  S
C1702      C1708   1.549       .  S
C1702      C1707   1.568       .  S
C1702      C1948   1.507       .  S
C1703      C1711   1.396       .  A
C1703      C1706   1.374       .  A
C1704      C1715   1.393       .  A
C1704      C1707   1.388       .  A
C1705      C1719   1.396       .  A
C1705      C1708   1.386       .  A
C1706      C1709   1.385       .  A
C1707      C1713   1.402       .  A
C1708      C1716   1.392       .  A
C1709      N1710   1.358       .  A
C1709      H1722   1.082       .  S
N1710      C1711   1.373       .  A
C1711      H1712   1.082       .  S
C1713      N1714   1.361       .  A
C1713      H1723   1.080       .  S
N1714      C1715   1.354       .  A
C1715      H1721   1.081       .  S
C1716      N1717   1.365       .  A
C1716      H1718   1.082       .  S
N1717      C1719   1.366       .  A
C1719      H1720   1.080       .  S
C1724      C1726   1.568       .  S
C1724      C1728   1.561       .  S
C1724      C1727   1.541       .  S
C1724      C1916   1.520       .  S
C1725      C1729   1.559       .  S
C1725      C1731   1.554       .  S
C1725      C1730   1.533       .  S
C1725      C1935   1.512       .  S
C1726      C1734   1.400       .  A
C1726      C1729   1.391       .  A
C1727      C1738   1.390       .  A
C1727      C1730   1.373       .  A
C1728      C1742   1.397       .  A
C1728      C1731   1.389       .  A
C1729      C1732   1.397       .  A
C1730      C1736   1.387       .  A
C1731      C1739   1.392       .  A
C1732      N1733   1.359       .  A
C1732      H1745   1.081       .  S
N1733      C1734   1.361       .  A
C1734      H1735   1.080       .  S
C1736      N1737   1.363       .  A
C1736      H1746   1.082       .  S
N1737      C1738   1.364       .  A
C1738      H1744   1.082       .  S
C1739      N1740   1.365       .  A
C1739      H1741   1.081       .  S
N1740      C1742   1.369       .  A
C1742      H1743   1.082       .  S
C1747      C1749   1.542       .  S
C1747      C1751   1.562       .  S
C1747      C1750   1.531       .  S
C1747      C1887   1.501       .  S
C1748      C1752   1.535       .  S
C1748      C1754   1.565       .  S
C1748      C1753   1.552       .  S
C1748      C1900   1.510       .  S
C1749      C1757   1.391       .  A
C1749      C1752   1.373       .  A
C1750      C1761   1.378       .  A
C1750      C1753   1.379       .  A
C1751      C1765   1.397       .  A
C1751      C1754   1.392       .  A
C1752      C1755   1.383       .  A
C1753      C1759   1.395       .  A
C1754      C1762   1.395       .  A
C1755      N1756   1.358       .  A
C1755      H1768   1.082       .  S
N1756      C1757   1.364       .  A
C1757      H1758   1.082       .  S
C1759      N1760   1.369       .  A
C1759      H1769   1.081       .  S
N1760      C1761   1.356       .  A
C1761      H1767   1.083       .  S
C1762      N1763   1.363       .  A
C1762      H1764   1.082       .  S
N1763      C1765   1.363       .  A
C1765      H1766   1.081       .  S
C1770      C1772   1.568       .  S
C1770      C1774   1.545       .  S
C1770      C1773   1.538       .  S
C1770      C1868   1.490       .  S
C1771      C1775   1.564       .  S
C1771      C1777   1.560       .  S
C1771      C1776   1.533       .  S
C1771      C1855   1.495       .  S
C1772      C1780   1.398       .  A
C1772      C1775   1.389       .  A
C1773      C1784   1.392       .  A
C1773      C1776   1.366       .  A
C1774      C1788   1.392       .  A
C1774      C1777   1.377       .  A
C1775      C1778   1.402       .  A
C1776      C1782   1.386       .  A
C1777      C1785   1.398       .  A
C1778      N1779   1.371       .  A
C1778      H1791   1.081       .  S
N1779      C1780   1.367       .  A
C1780      H1781   1.081       .  S
C1782      N1783   1.362       .  A
C1782      H1792   1.082       .  S
N1783      C1784   1.368       .  A
C1784      H1790   1.082       .  S
C1785      N1786   1.361       .  A
C1785      H1787   1.082       .  S
N1786      C1788   1.358       .  A
C1788      H1789   1.080       .  S
O1793      C1801   1.264       .  A
O1794      C1802   1.244       .  A
O1794     Co1814   1.921       .  S
O1795      C1803   1.262       .  A
O1795     Co1815   2.020   1_545  S
O1796      C1804   1.281       .  A
O1796     Co1816   2.033   1_544  S
O1797      C1803   1.244       .  A
O1798      C1804   1.278       .  A
O1798     Co1813   1.981   1_655  S
O1799      C1802   1.265       .  A
O1799     Co1816   2.010   1_545  S
O1800      C1801   1.273       .  A
O1800     Co1815   2.025   1_544  S
C1801      C2095   1.453       .  S
C1802      C1980   1.436       .  S
C1803      C1903   1.461       .  S
C1804      C1919   1.456       .  S
O1805      C1818   1.247       .  A
O1805     Co2515   2.006   1_655  S
O1806      C1819   1.272       .  A
O1807      C1820   1.285       .  A
O1807     Co2517   2.016   1_554  S
O1808      C1821   1.241       .  A
O1808     Co2518   1.912       .  S
O1809      C1821   1.272       .  A
O1809     Co2516   2.046       .  S
O1810      C1820   1.275       .  A
O1811      C1818   1.235       .  A
O1811     Co2518   1.942   1_554  S
O1812      C1819   1.254       .  A
O1812     Co2517   1.935       .  S
Co1813     O2507   2.006   1_445  S
Co1813     O1817   1.912   1_454  S
Co1814     O2511   2.046   1_545  S
Co1814     O1817   2.017       .  S
Co1815     O2509   2.016   1_556  S
Co1815     O2514   1.935       .  S
Co1816     O2510   1.912       .  S
Co1816     O2513   1.942   1_556  S
Co1816     O1817   1.998   1_565  S
C1818      C2060   1.457       .  S
C1819      C2015   1.440       .  S
C1820      C1852   1.449       .  S
C1821      C1967   1.468       .  S
O1822      C1830   1.258       .  A
O1822     Co1842   1.937       .  S
O1823      C1831   1.247       .  A
O1823     Co1843   1.937       .  S
O1824      C1832   1.270       .  A
O1824     Co1844   2.024       .  S
O1825      C1833   1.268       .  A
O1825     Co1845   2.034       .  S
O1826      C1832   1.251       .  A
O1826     Co1843   1.926       .  S
O1827      C1833   1.229       .  A
O1827     Co1842   1.868       .  S
O1828      C1831   1.258       .  A
O1828     Co1845   1.987       .  S
O1829      C1830   1.273       .  A
O1829     Co1844   2.005       .  S
C1830      C1932   1.461       .  S
C1831      C1951   1.431       .  S
C1832      C2047   1.459       .  S
C1833      C1996   1.431       .  S
O1834      C1847   1.287       .  A
O1834     Co1842   2.055       .  S
O1835      C1848   1.267       .  A
O1835     Co1843   2.025       .  S
O1836      C1849   1.243       .  A
O1836     Co1844   1.947       .  S
O1837      C1850   1.262       .  A
O1837     Co1845   1.956       .  S
O1838      C1850   1.275       .  A
O1838     Co1843   2.014       .  S
O1839      C1849   1.239       .  A
O1839     Co1842   1.914       .  S
O1840      C1847   1.266       .  A
O1840     Co1845   1.862       .  S
O1841      C1848   1.237       .  A
O1841     Co1844   1.910       .  S
Co1842     O1846   2.005       .  S
Co1843     O1846   1.984       .  S
Co1844     O1846   1.995       .  S
Co1845     O1846   1.938       .  S
C1847      C1884   1.455       .  S
C1848      C1871   1.434       .  S
C1849      C2076   1.429       .  S
C1850      C2031   1.466       .  S
C1851      C1852   1.408       .  A
C1851      C1856   1.386       .  A
C1851      H1858   1.084       .  S
C1852      C1853   1.404       .  A
C1853      C1860   1.509       .  S
C1853      C1854   1.383       .  A
C1854      C1855   1.408       .  A
C1854      H1859   1.080       .  S
C1855      C1856   1.411       .  A
C1856      C1857   1.510       .  S
C1857      H1861   1.111       .  S
C1857      H1862   1.104       .  S
C1857      H1863   1.110       .  S
C1860      H1864   1.105       .  S
C1860      H1865   1.109       .  S
C1860      H1866   1.111       .  S
C1867      C1868   1.392       .  A
C1867      C1872   1.383       .  A
C1867      H1874   1.083       .  S
C1868      C1869   1.417       .  A
C1869      C1876   1.506       .  S
C1869      C1870   1.387       .  A
C1870      C1871   1.391       .  A
C1870      H1875   1.085       .  S
C1871      C1872   1.420       .  A
C1872      C1873   1.507       .  S
C1873      H1877   1.111       .  S
C1873      H1878   1.109       .  S
C1873      H1879   1.101       .  S
C1876      H1880   1.111       .  S
C1876      H1881   1.107       .  S
C1876      H1882   1.108       .  S
C1883      C1884   1.398       .  A
C1883      C1888   1.387       .  A
C1883      H1890   1.085       .  S
C1884      C1885   1.416       .  A
C1885      C1892   1.510       .  S
C1885      C1886   1.387       .  A
C1886      C1887   1.397       .  A
C1886      H1891   1.077       .  S
C1887      C1888   1.423       .  A
C1888      C1889   1.513       .  S
C1889      H1893   1.111       .  S
C1889      H1894   1.110       .  S
C1889      H1895   1.103       .  S
C1892      H1896   1.109       .  S
C1892      H1897   1.110       .  S
C1892      H1898   1.111       .  S
C1899      C1900   1.405       .  A
C1899      C1904   1.388       .  A
C1899      H1906   1.078       .  S
C1900      C1901   1.423       .  A
C1901      C1908   1.510       .  S
C1901      C1902   1.395       .  A
C1902      C1903   1.400       .  A
C1902      H1907   1.083       .  S
C1903      C1904   1.405       .  A
C1904      C1905   1.497       .  S
C1905      H1909   1.111       .  S
C1905      H1910   1.107       .  S
C1905      H1911   1.109       .  S
C1908      H1912   1.110       .  S
C1908      H1913   1.103       .  S
C1908      H1914   1.111       .  S
C1915      C1916   1.404       .  A
C1915      C1920   1.390       .  A
C1915      H1922   1.075       .  S
C1916      C1917   1.423       .  A
C1917      C1924   1.511       .  S
C1917      C1918   1.403       .  A
C1918      C1919   1.395       .  A
C1918      H1923   1.082       .  S
C1919      C1920   1.405       .  A
C1920      C1921   1.508       .  S
C1921      H1925   1.111       .  S
C1921      H1926   1.110       .  S
C1921      H1927   1.108       .  S
C1924      H1928   1.103       .  S
C1924      H1929   1.103       .  S
C1924      H1930   1.110       .  S
C1931      C1932   1.402       .  A
C1931      C1936   1.395       .  A
C1931      H1938   1.085       .  S
C1932      C1933   1.411       .  A
C1933      C1940   1.508       .  S
C1933      C1934   1.389       .  A
C1934      C1935   1.403       .  A
C1934      H1939   1.079       .  S
C1935      C1936   1.420       .  A
C1936      C1937   1.510       .  S
C1937      H1941   1.111       .  S
C1937      H1942   1.110       .  S
C1937      H1943   1.105       .  S
C1940      H1944   1.110       .  S
C1940      H1945   1.105       .  S
C1940      H1946   1.111       .  S
C1947      C1948   1.397       .  A
C1947      C1952   1.377       .  A
C1947      H1954   1.072       .  S
C1948      C1949   1.428       .  A
C1949      C1956   1.509       .  S
C1949      C1950   1.394       .  A
C1950      C1951   1.390       .  A
C1950      H1955   1.085       .  S
C1951      C1952   1.404       .  A
C1952      C1953   1.511       .  S
C1953      H1957   1.111       .  S
C1953      H1958   1.101       .  S
C1953      H1959   1.109       .  S
C1956      H1960   1.111       .  S
C1956      H1961   1.103       .  S
C1956      H1962   1.110       .  S
C1963      C1964   1.406       .  A
C1963      C1968   1.395       .  A
C1963      H1970   1.080       .  S
C1964      C1965   1.408       .  A
C1965      C1972   1.511       .  S
C1965      C1966   1.391       .  A
C1966      C1967   1.413       .  A
C1966      H1971   1.085       .  S
C1967      C1968   1.407       .  A
C1968      C1969   1.506       .  S
C1969      H2675   1.111       .  S
C1969      H2676   1.110       .  S
C1969      H2677   1.107       .  S
C1972      H1976   1.110       .  S
C1972      H1977   1.106       .  S
C1972      H1978   1.110       .  S
H1973      C2671   1.111   1_545  S
H1974      C2671   1.110   1_545  S
H1975      C2671   1.107   1_545  S
C1979      C1980   1.405       .  A
C1979      C1984   1.395       .  A
C1979      H1986   1.085       .  S
C1980      C1981   1.392       .  A
C1981      C1988   1.500       .  S
C1981      C1982   1.380       .  A
C1982      C1983   1.404       .  A
C1982      H1987   1.078       .  S
C1983      C1984   1.414       .  A
C1984      C1985   1.508       .  S
C1985      H1989   1.111       .  S
C1985      H1990   1.106       .  S
C1985      H1991   1.110       .  S
C1988      H1992   1.102       .  S
C1988      H1993   1.107       .  S
C1988      H1994   1.110       .  S
C1995      C1996   1.397       .  A
C1995      C2000   1.385       .  A
C1995      H2002   1.086       .  S
C1996      C1997   1.396       .  A
C1997      C2004   1.509       .  S
C1997      C1998   1.385       .  A
C1998      C1999   1.401       .  A
C1998      H2003   1.067       .  S
C1999      C2000   1.427       .  A
C2000      C2001   1.516       .  S
C2001      H2005   1.110       .  S
C2001      H2006   1.108       .  S
C2001      H2007   1.102       .  S
C2004      H2008   1.106       .  S
C2004      H2009   1.108       .  S
C2004      H2010   1.110       .  S
C2011      C2012   1.413       .  A
C2011      C2016   1.390       .  A
C2011      H2018   1.081       .  S
C2012      C2013   1.415       .  A
C2013      C2020   1.512       .  S
C2013      C2014   1.389       .  A
C2014      C2015   1.397       .  A
C2014      H2019   1.083       .  S
C2015      C2016   1.396       .  A
C2016      C2017   1.503       .  S
C2017      H2021   1.111       .  S
C2017      H2022   1.110       .  S
C2017      H2023   1.107       .  S
C2020      H2024   1.104       .  S
C2020      H2025   1.110       .  S
C2020      H2026   1.104       .  S
C2027      C2028   1.411       .  A
C2027      C2032   1.399       .  A
C2027      H2034   1.076       .  S
C2028      C2029   1.422       .  A
C2029      C2036   1.511       .  S
C2029      C2030   1.391       .  A
C2030      C2031   1.399       .  A
C2030      H2035   1.081       .  S
C2031      C2032   1.407       .  A
C2032      C2033   1.509       .  S
C2033      H2037   1.111       .  S
C2033      H2038   1.109       .  S
C2033      H2039   1.109       .  S
C2036      H2040   1.110       .  S
C2036      H2041   1.102       .  S
C2036      H2042   1.111       .  S
C2043      C2044   1.393       .  A
C2043      C2048   1.382       .  A
C2043      H2050   1.079       .  S
C2044      C2045   1.412       .  A
C2045      C2052   1.510       .  S
C2045      C2046   1.391       .  A
C2046      C2047   1.408       .  A
C2046      H2051   1.085       .  S
C2047      C2048   1.411       .  A
C2048      C2049   1.500       .  S
C2049      H2053   1.112       .  S
C2049      H2054   1.109       .  S
C2049      H2055   1.101       .  S
C2052      H2056   1.106       .  S
C2052      H2057   1.110       .  S
C2052      H2058   1.111       .  S
C2059      C2060   1.393       .  A
C2059      C2064   1.393       .  A
C2059      H2066   1.080       .  S
C2060      C2061   1.414       .  A
C2061      C2068   1.512       .  S
C2061      C2062   1.389       .  A
C2062      C2063   1.401       .  A
C2062      H2067   1.076       .  S
C2063      C2064   1.425       .  A
C2064      C2065   1.512       .  S
C2065      H2069   1.111       .  S
C2065      H2070   1.103       .  S
C2065      H2071   1.110       .  S
C2068      H2072   1.109       .  S
C2068      H2073   1.111       .  S
C2068      H2074   1.111       .  S
C2075      C2076   1.397       .  A
C2075      C2080   1.381       .  A
C2075      H2082   1.085       .  S
C2076      C2077   1.408       .  A
C2077      C2084   1.511       .  S
C2077      C2078   1.374       .  A
C2078      C2079   1.391       .  A
C2078      H2083   1.073       .  S
C2079      C2080   1.424       .  A
C2080      C2081   1.517       .  S
C2081      H2085   1.111       .  S
C2081      H2086   1.100       .  S
C2081      H2087   1.101       .  S
C2084      H2088   1.104       .  S
C2084      H2089   1.111       .  S
C2084      H2090   1.111       .  S
C2091      C2092   1.407       .  A
C2091      C2096   1.393       .  A
C2091      H2098   1.074       .  S
C2092      C2093   1.422       .  A
C2093      C2100   1.512       .  S
C2093      C2094   1.391       .  A
C2094      C2095   1.399       .  A
C2094      H2099   1.085       .  S
C2095      C2096   1.402       .  A
C2096      C2097   1.508       .  S
C2097      H2101   1.111       .  S
C2097      H2102   1.110       .  S
C2097      H2103   1.108       .  S
C2100      H2104   1.111       .  S
C2100      H2105   1.103       .  S
C2100      H2106   1.110       .  S
C2107      C2109   1.542       .  S
C2107      C2111   1.558       .  S
C2107      C2110   1.566       .  S
C2107      C2794   1.513       .  S
C2108      C2112   1.529       .  S
C2108      C2114   1.535       .  S
C2108      C2113   1.563       .  S
C2108      C2781   1.492       .  S
C2109      C2117   1.390       .  A
C2109      C2112   1.370       .  A
C2110      C2121   1.398       .  A
C2110      C2113   1.395       .  A
C2111      C2125   1.395       .  A
C2111      C2114   1.379       .  A
C2112      C2115   1.386       .  A
C2113      C2119   1.399       .  A
C2114      C2122   1.385       .  A
C2115      N2116   1.360       .  A
C2115      H2128   1.083       .  S
N2116      C2117   1.365       .  A
N2116      C2389   1.459       .  S
C2117      H2118   1.082       .  S
C2119      N2120   1.357       .  A
C2119      H2129   1.080       .  S
N2120      C2121   1.359       .  A
N2120      C2150   1.463       .  S
C2121      H2127   1.079       .  S
C2122      N2123   1.357       .  A
C2122      H2124   1.082       .  S
N2123      C2125   1.370       .  A
N2123      C2208   1.461       .  S
C2125      H2126   1.082       .  S
N2130      C2135   1.359       .  A
N2130      H2162   1.040       .  S
N2131      C2138   1.360       .  A
N2131      C2139   1.360       .  A
N2132      C2137   1.363       .  A
N2132      H2163   1.040       .  S
N2133      C2140   1.359       .  A
N2133      C2141   1.360       .  A
C2134      C2142   1.385       .  A
C2134      C2150   1.423       .  A
C2135      C2151   1.426       .  A
C2135      C2143   1.387       .  A
C2136      C2144   1.387       .  A
C2136      C2153   1.431       .  A
C2137      C2152   1.430       .  A
C2137      C2145   1.386       .  A
C2138      C2150   1.428       .  A
C2138      C2146   1.386       .  A
C2139      C2153   1.426       .  A
C2139      C2147   1.386       .  A
C2140      C2148   1.385       .  A
C2140      C2151   1.426       .  A
C2141      C2149   1.386       .  A
C2141      C2152   1.428       .  A
C2142      H2154   1.082       .  S
C2143      H2155   1.082       .  S
C2144      H2156   1.082       .  S
C2145      H2157   1.082       .  S
C2146      C2147   1.377       .  A
C2146      H2158   1.082       .  S
C2147      H2159   1.082       .  S
C2148      C2149   1.377       .  A
C2148      H2160   1.082       .  S
C2149      H2161   1.082       .  S
C2151      N2439   1.461       .  S
C2152      N2180   1.468       .  S
C2153      N2485   1.465       .  S
C2164      C2166   1.559       .  S
C2164      C2168   1.544       .  S
C2164      C2167   1.542       .  S
C2164      C2746   1.504       .  S
C2165      C2169   1.570       .  S
C2165      C2171   1.549       .  S
C2165      C2170   1.546       .  S
C2165      C2765   1.510       .  S
C2166      C2174   1.395       .  A
C2166      C2169   1.389       .  A
C2167      C2178   1.389       .  A
C2167      C2170   1.379       .  A
C2168      C2182   1.391       .  A
C2168      C2171   1.376       .  A
C2169      C2172   1.404       .  A
C2170      C2176   1.390       .  A
C2171      C2179   1.395       .  A
C2172      N2173   1.366       .  A
C2172      H2185   1.081       .  S
N2173      C2174   1.352       .  A
N2173      C2355   1.464       .  S
C2174      H2175   1.081       .  S
C2176      N2177   1.364       .  A
C2176      H2186   1.082       .  S
N2177      C2178   1.366       .  A
N2177      C2241   1.463       .  S
C2178      H2184   1.082       .  S
C2179      N2180   1.367       .  A
C2179      H2181   1.082       .  S
N2180      C2182   1.363       .  A
C2182      H2183   1.081       .  S
N2187      C2192   1.356       .  A
N2187      H2219   1.039       .  S
N2188      C2195   1.360       .  A
N2188      C2196   1.360       .  A
N2189      C2194   1.361       .  A
N2189      H2220   1.038       .  S
N2190      C2197   1.362       .  A
N2190      C2198   1.361       .  A
C2191      C2199   1.384       .  A
C2191      C2207   1.417       .  A
C2192      C2208   1.420       .  A
C2192      C2200   1.386       .  A
C2193      C2201   1.386       .  A
C2193      C2210   1.430       .  A
C2194      C2209   1.431       .  A
C2194      C2202   1.387       .  A
C2195      C2207   1.424       .  A
C2195      C2203   1.382       .  A
C2196      C2210   1.425       .  A
C2196      C2204   1.385       .  A
C2197      C2205   1.385       .  A
C2197      C2208   1.430       .  A
C2198      C2206   1.386       .  A
C2198      C2209   1.430       .  A
C2199      H2211   1.082       .  S
C2200      H2212   1.081       .  S
C2201      H2213   1.082       .  S
C2202      H2214   1.082       .  S
C2203      C2204   1.377       .  A
C2203      H2215   1.080       .  S
C2204      H2216   1.082       .  S
C2205      C2206   1.379       .  A
C2205      H2217   1.082       .  S
C2206      H2218   1.082       .  S
C2207      N2488   1.461       .  S
C2209      N2465   1.466       .  S
C2210      N2271   1.466       .  S
N2221      C2226   1.359       .  A
N2221      H2253   1.043       .  S
N2222      C2229   1.359       .  A
N2222      C2230   1.358       .  A
N2223      C2228   1.363       .  A
N2223      H2254   1.043       .  S
N2224      C2231   1.362       .  A
N2224      C2232   1.363       .  A
C2225      C2233   1.386       .  A
C2225      C2241   1.427       .  A
C2226      C2242   1.427       .  A
C2226      C2234   1.386       .  A
C2227      C2235   1.388       .  A
C2227      C2244   1.432       .  A
C2228      C2243   1.429       .  A
C2228      C2236   1.385       .  A
C2229      C2241   1.425       .  A
C2229      C2237   1.386       .  A
C2230      C2244   1.422       .  A
C2230      C2238   1.385       .  A
C2231      C2239   1.386       .  A
C2231      C2242   1.433       .  A
C2232      C2240   1.386       .  A
C2232      C2243   1.433       .  A
C2233      H2245   1.082       .  S
C2234      H2246   1.082       .  S
C2235      H2247   1.082       .  S
C2236      H2248   1.082       .  S
C2237      C2238   1.375       .  A
C2237      H2249   1.081       .  S
C2238      H2250   1.082       .  S
C2239      C2240   1.378       .  A
C2239      H2251   1.082       .  S
C2240      H2252   1.082       .  S
C2242      N2435   1.465       .  S
C2243      N2321   1.472       .  S
C2244      N2416   1.462       .  S
C2255      C2257   1.558       .  S
C2255      C2259   1.534       .  S
C2255      C2258   1.547       .  S
C2255      C2714   1.504       .  S
C2256      C2260   1.567       .  S
C2256      C2262   1.544       .  S
C2256      C2261   1.570       .  S
C2256      C2730   1.518       .  S
C2257      C2265   1.395       .  A
C2257      C2260   1.389       .  A
C2258      C2269   1.388       .  A
C2258      C2261   1.388       .  A
C2259      C2273   1.390       .  A
C2259      C2262   1.369       .  A
C2260      C2263   1.400       .  A
C2261      C2267   1.403       .  A
C2262      C2270   1.392       .  A
C2263      N2264   1.371       .  A
C2263      H2276   1.082       .  S
N2264      C2265   1.364       .  A
N2264      C2357   1.477       .  S
C2265      H2266   1.079       .  S
C2267      N2268   1.367       .  A
C2267      H2277   1.081       .  S
N2268      C2269   1.356       .  A
N2268      C2298   1.464       .  S
C2269      H2275   1.082       .  S
C2270      N2271   1.366       .  A
C2270      H2272   1.082       .  S
N2271      C2273   1.364       .  A
C2273      H2274   1.082       .  S
N2278      C2283   1.359       .  A
N2278      C2282   1.359       .  A
N2278      H2310   1.042       .  S
N2279      C2287   1.361       .  A
N2280      C2285   1.362       .  A
N2280      C2284   1.362       .  A
N2280      H2311   1.042       .  S
N2281      C2289   1.356       .  A
C2282      C2290   1.385       .  A
C2282      C2298   1.423       .  A
C2283      C2299   1.427       .  A
C2283      C2291   1.387       .  A
C2284      C2292   1.386       .  A
C2284      C2301   1.432       .  A
C2285      C2300   1.430       .  A
C2285      C2293   1.385       .  A
C2286      C2298   1.431       .  A
C2286      C2294   1.386       .  A
C2287      C2301   1.429       .  A
C2287      C2295   1.385       .  A
C2288      C2296   1.384       .  A
C2288      C2299   1.417       .  A
C2289      C2297   1.386       .  A
C2289      C2300   1.420       .  A
C2290      C2291   1.380       .  A
C2290      H2302   1.082       .  S
C2291      H2303   1.082       .  S
C2292      C2293   1.382       .  A
C2292      H2304   1.081       .  S
C2293      H2305   1.082       .  S
C2294      H2306   1.082       .  S
C2295      H2307   1.082       .  S
C2296      H2308   1.082       .  S
C2297      H2309   1.081       .  S
C2299      N2462   1.458       .  S
C2300      N2325   1.463       .  S
C2301      N2419   1.469       .  S
C2312      C2314   1.545       .  S
C2312      C2316   1.545       .  S
C2312      C2315   1.561       .  S
C2312      C2701   1.500       .  S
C2313      C2317   1.556       .  S
C2313      C2319   1.559       .  S
C2313      C2318   1.543       .  S
C2313      C2685   1.507       .  S
C2314      C2322   1.388       .  A
C2314      C2317   1.378       .  A
C2315      C2326   1.400       .  A
C2315      C2318   1.387       .  A
C2316      C2330   1.394       .  A
C2316      C2319   1.376       .  A
C2317      C2320   1.400       .  A
C2318      C2324   1.385       .  A
C2319      C2327   1.395       .  A
C2320      N2321   1.372       .  A
C2320      H2333   1.081       .  S
N2321      C2322   1.362       .  A
C2322      H2323   1.082       .  S
C2324      N2325   1.363       .  A
C2324      H2334   1.082       .  S
N2325      C2326   1.360       .  A
C2326      H2332   1.077       .  S
C2327      N2328   1.355       .  A
C2327      H2329   1.081       .  S
N2328      C2330   1.363       .  A
N2328      C2391   1.459       .  S
C2330      H2331   1.082       .  S
N2335      C2340   1.368       .  A
N2335      C2339   1.367       .  A
N2335      H2367   1.024       .  S
N2336      C2343   1.357   1_556  A
N2336      C2344   1.357       .  A
N2337      C2342   1.365       .  A
N2337      C2341   1.367       .  A
N2337      H2368   1.028       .  S
N2338      C2345   1.365   1_556  A
N2338      C2346   1.365       .  A
C2339      C2347   1.385       .  A
C2339      C2355   1.436       .  A
C2340      C2356   1.441       .  A
C2340      C2348   1.388       .  A
C2341      C2349   1.385       .  A
C2341      C2358   1.434       .  A
C2342      C2357   1.435       .  A
C2342      C2350   1.386       .  A
C2343      C2355   1.419       .  A
C2343      C2351   1.385       .  A
C2344      C2358   1.419       .  A
C2344      C2352   1.385       .  A
C2345      C2353   1.386       .  A
C2345      C2356   1.438       .  A
C2346      C2354   1.386       .  A
C2346      C2357   1.438       .  A
C2347      C2348   1.383       .  A
C2347      H2359   1.082       .  S
C2348      H2360   1.081       .  S
C2349      C2350   1.381       .  A
C2349      H2361   1.082       .  S
C2350      H2362   1.080       .  S
C2351      C2352   1.373   1_554  A
C2351      H2363   1.082       .  S
C2352      H2364   1.082       .  S
C2353      C2354   1.382   1_554  A
C2353      H2365   1.081       .  S
C2354      H2366   1.082       .  S
C2356      N2481   1.480       .  S
C2358      N2412   1.466       .  S
N2369      C2374   1.363       .  A
N2369      C2373   1.361       .  A
N2369      H2401   1.040       .  S
N2370      C2377   1.356       .  A
N2370      C2378   1.357   1_554  A
N2371      C2376   1.355       .  A
N2371      C2375   1.358       .  A
N2371      H2402   1.041       .  S
N2372      C2379   1.362   1_556  A
N2372      C2380   1.360       .  A
C2373      C2381   1.385       .  A
C2373      C2389   1.429       .  A
C2374      C2390   1.429       .  A
C2374      C2382   1.385       .  A
C2375      C2383   1.385       .  A
C2375      C2392   1.418       .  A
C2376      C2391   1.416       .  A
C2376      C2384   1.383       .  A
C2377      C2389   1.421       .  A
C2377      C2385   1.386       .  A
C2378      C2392   1.422       .  A
C2378      C2386   1.385       .  A
C2379      C2387   1.384       .  A
C2379      C2390   1.429       .  A
C2380      C2388   1.386       .  A
C2380      C2391   1.429       .  A
C2381      C2382   1.381       .  A
C2381      H2393   1.079       .  S
C2382      H2394   1.082       .  S
C2383      C2384   1.377       .  A
C2383      H2395   1.082       .  S
C2384      H2396   1.080       .  S
C2385      C2386   1.376   1_554  A
C2385      H2397   1.082       .  S
C2386      H2398   1.082       .  S
C2387      C2388   1.380   1_554  A
C2387      H2399   1.080       .  S
C2388      H2400   1.082       .  S
C2390      N2442   1.470       .  S
C2392      N2458   1.457       .  S
C2403      C2405   1.550       .  S
C2403      C2407   1.561       .  S
C2403      C2406   1.555       .  S
C2403      C2666   1.514       .  S
C2404      C2408   1.531       .  S
C2404      C2410   1.549       .  S
C2404      C2409   1.568       .  S
C2404      C2650   1.507       .  S
C2405      C2413   1.396       .  A
C2405      C2408   1.374       .  A
C2406      C2417   1.393       .  A
C2406      C2409   1.388       .  A
C2407      C2421   1.396       .  A
C2407      C2410   1.386       .  A
C2408      C2411   1.385       .  A
C2409      C2415   1.402       .  A
C2410      C2418   1.392       .  A
C2411      N2412   1.358       .  A
C2411      H2424   1.082       .  S
N2412      C2413   1.373       .  A
C2413      H2414   1.082       .  S
C2415      N2416   1.361       .  A
C2415      H2425   1.080       .  S
N2416      C2417   1.354       .  A
C2417      H2423   1.081       .  S
C2418      N2419   1.365       .  A
C2418      H2420   1.082       .  S
N2419      C2421   1.366       .  A
C2421      H2422   1.080       .  S
C2426      C2428   1.568       .  S
C2426      C2430   1.561       .  S
C2426      C2429   1.541       .  S
C2426      C2618   1.520       .  S
C2427      C2431   1.559       .  S
C2427      C2433   1.554       .  S
C2427      C2432   1.533       .  S
C2427      C2637   1.512       .  S
C2428      C2436   1.400       .  A
C2428      C2431   1.391       .  A
C2429      C2440   1.390       .  A
C2429      C2432   1.373       .  A
C2430      C2444   1.397       .  A
C2430      C2433   1.389       .  A
C2431      C2434   1.397       .  A
C2432      C2438   1.387       .  A
C2433      C2441   1.392       .  A
C2434      N2435   1.359       .  A
C2434      H2447   1.081       .  S
N2435      C2436   1.361       .  A
C2436      H2437   1.080       .  S
C2438      N2439   1.363       .  A
C2438      H2448   1.082       .  S
N2439      C2440   1.364       .  A
C2440      H2446   1.082       .  S
C2441      N2442   1.365       .  A
C2441      H2443   1.081       .  S
N2442      C2444   1.369       .  A
C2444      H2445   1.082       .  S
C2449      C2451   1.542       .  S
C2449      C2453   1.562       .  S
C2449      C2452   1.531       .  S
C2449      C2589   1.501       .  S
C2450      C2454   1.535       .  S
C2450      C2456   1.565       .  S
C2450      C2455   1.552       .  S
C2450      C2602   1.510       .  S
C2451      C2459   1.391       .  A
C2451      C2454   1.373       .  A
C2452      C2463   1.378       .  A
C2452      C2455   1.379       .  A
C2453      C2467   1.397       .  A
C2453      C2456   1.392       .  A
C2454      C2457   1.383       .  A
C2455      C2461   1.395       .  A
C2456      C2464   1.395       .  A
C2457      N2458   1.358       .  A
C2457      H2470   1.082       .  S
N2458      C2459   1.364       .  A
C2459      H2460   1.082       .  S
C2461      N2462   1.369       .  A
C2461      H2471   1.081       .  S
N2462      C2463   1.356       .  A
C2463      H2469   1.083       .  S
C2464      N2465   1.363       .  A
C2464      H2466   1.082       .  S
N2465      C2467   1.363       .  A
C2467      H2468   1.081       .  S
C2472      C2474   1.568       .  S
C2472      C2476   1.545       .  S
C2472      C2475   1.538       .  S
C2472      C2570   1.490       .  S
C2473      C2477   1.564       .  S
C2473      C2479   1.560       .  S
C2473      C2478   1.533       .  S
C2473      C2557   1.495       .  S
C2474      C2482   1.398       .  A
C2474      C2477   1.389       .  A
C2475      C2486   1.392       .  A
C2475      C2478   1.366       .  A
C2476      C2490   1.392       .  A
C2476      C2479   1.377       .  A
C2477      C2480   1.402       .  A
C2478      C2484   1.386       .  A
C2479      C2487   1.398       .  A
C2480      N2481   1.371       .  A
C2480      H2493   1.081       .  S
N2481      C2482   1.367       .  A
C2482      H2483   1.081       .  S
C2484      N2485   1.362       .  A
C2484      H2494   1.082       .  S
N2485      C2486   1.368       .  A
C2486      H2492   1.082       .  S
C2487      N2488   1.361       .  A
C2487      H2489   1.082       .  S
N2488      C2490   1.358       .  A
C2490      H2491   1.080       .  S
O2495      C2503   1.264       .  A
O2496      C2504   1.244       .  A
O2496     Co2516   1.921       .  S
O2497      C2505   1.262       .  A
O2497     Co2517   2.020       .  S
O2498      C2506   1.281       .  A
O2498     Co2518   2.033   1_554  S
O2499      C2505   1.244       .  A
O2500      C2506   1.278       .  A
O2500     Co2515   1.981   1_655  S
O2501      C2504   1.265       .  A
O2501     Co2518   2.010       .  S
O2502      C2503   1.273       .  A
O2502     Co2517   2.025   1_554  S
C2503      C2797   1.453       .  S
C2504      C2682   1.436       .  S
C2505      C2605   1.461       .  S
C2506      C2621   1.456       .  S
O2507      C2520   1.247       .  A
O2508      C2521   1.272       .  A
O2509      C2522   1.285       .  A
O2510      C2523   1.241       .  A
O2511      C2523   1.272       .  A
O2512      C2522   1.275       .  A
O2513      C2520   1.235       .  A
O2514      C2521   1.254       .  A
Co2515     O2519   1.912   1_454  S
Co2516     O2519   2.017       .  S
Co2518     O2519   1.998       .  S
C2520      C2762   1.457       .  S
C2521      C2717   1.440       .  S
C2522      C2554   1.449       .  S
C2523      C2669   1.468       .  S
O2524      C2532   1.258       .  A
O2524     Co2544   1.937       .  S
O2525      C2533   1.247       .  A
O2525     Co2545   1.937       .  S
O2526      C2534   1.270       .  A
O2526     Co2546   2.024       .  S
O2527      C2535   1.268       .  A
O2527     Co2547   2.034       .  S
O2528      C2534   1.251       .  A
O2528     Co2545   1.926       .  S
O2529      C2535   1.229       .  A
O2529     Co2544   1.868       .  S
O2530      C2533   1.258       .  A
O2530     Co2547   1.987       .  S
O2531      C2532   1.273       .  A
O2531     Co2546   2.005       .  S
C2532      C2634   1.461       .  S
C2533      C2653   1.431       .  S
C2534      C2749   1.459       .  S
C2535      C2698   1.431       .  S
O2536      C2549   1.287       .  A
O2536     Co2544   2.055       .  S
O2537      C2550   1.267       .  A
O2537     Co2545   2.025       .  S
O2538      C2551   1.243       .  A
O2538     Co2546   1.947       .  S
O2539      C2552   1.262       .  A
O2539     Co2547   1.956       .  S
O2540      C2552   1.275       .  A
O2540     Co2545   2.014       .  S
O2541      C2551   1.239       .  A
O2541     Co2544   1.914       .  S
O2542      C2549   1.266       .  A
O2542     Co2547   1.862       .  S
O2543      C2550   1.237       .  A
O2543     Co2546   1.910       .  S
Co2544     O2548   2.005       .  S
Co2545     O2548   1.984       .  S
Co2546     O2548   1.995       .  S
Co2547     O2548   1.938       .  S
C2549      C2586   1.455       .  S
C2550      C2573   1.434       .  S
C2551      C2778   1.429       .  S
C2552      C2733   1.466       .  S
C2553      C2554   1.408       .  A
C2553      C2558   1.386       .  A
C2553      H2560   1.084       .  S
C2554      C2555   1.404       .  A
C2555      C2562   1.509       .  S
C2555      C2556   1.383       .  A
C2556      C2557   1.408       .  A
C2556      H2561   1.080       .  S
C2557      C2558   1.411       .  A
C2558      C2559   1.510       .  S
C2559      H2563   1.111       .  S
C2559      H2564   1.104       .  S
C2559      H2565   1.110       .  S
C2562      H2566   1.105       .  S
C2562      H2567   1.109       .  S
C2562      H2568   1.111       .  S
C2569      C2570   1.392       .  A
C2569      C2574   1.383       .  A
C2569      H2576   1.083       .  S
C2570      C2571   1.417       .  A
C2571      C2578   1.506       .  S
C2571      C2572   1.387       .  A
C2572      C2573   1.391       .  A
C2572      H2577   1.085       .  S
C2573      C2574   1.420       .  A
C2574      C2575   1.507       .  S
C2575      H2579   1.111       .  S
C2575      H2580   1.109       .  S
C2575      H2581   1.101       .  S
C2578      H2582   1.111       .  S
C2578      H2583   1.107       .  S
C2578      H2584   1.108       .  S
C2585      C2586   1.398       .  A
C2585      C2590   1.387       .  A
C2585      H2592   1.085       .  S
C2586      C2587   1.416       .  A
C2587      C2594   1.510       .  S
C2587      C2588   1.387       .  A
C2588      C2589   1.397       .  A
C2588      H2593   1.077       .  S
C2589      C2590   1.423       .  A
C2590      C2591   1.513       .  S
C2591      H2595   1.111       .  S
C2591      H2596   1.110       .  S
C2591      H2597   1.103       .  S
C2594      H2598   1.109       .  S
C2594      H2599   1.110       .  S
C2594      H2600   1.111       .  S
C2601      C2602   1.405       .  A
C2601      C2606   1.388       .  A
C2601      H2608   1.078       .  S
C2602      C2603   1.423       .  A
C2603      C2610   1.510       .  S
C2603      C2604   1.395       .  A
C2604      C2605   1.400       .  A
C2604      H2609   1.083       .  S
C2605      C2606   1.405       .  A
C2606      C2607   1.497       .  S
C2607      H2611   1.111       .  S
C2607      H2612   1.107       .  S
C2607      H2613   1.109       .  S
C2610      H2614   1.110       .  S
C2610      H2615   1.103       .  S
C2610      H2616   1.111       .  S
C2617      C2618   1.404       .  A
C2617      C2622   1.390       .  A
C2617      H2624   1.075       .  S
C2618      C2619   1.423       .  A
C2619      C2626   1.511       .  S
C2619      C2620   1.403       .  A
C2620      C2621   1.395       .  A
C2620      H2625   1.082       .  S
C2621      C2622   1.405       .  A
C2622      C2623   1.508       .  S
C2623      H2627   1.111       .  S
C2623      H2628   1.110       .  S
C2623      H2629   1.108       .  S
C2626      H2630   1.103       .  S
C2626      H2631   1.103       .  S
C2626      H2632   1.110       .  S
C2633      C2634   1.402       .  A
C2633      C2638   1.395       .  A
C2633      H2640   1.085       .  S
C2634      C2635   1.411       .  A
C2635      C2642   1.508       .  S
C2635      C2636   1.389       .  A
C2636      C2637   1.403       .  A
C2636      H2641   1.079       .  S
C2637      C2638   1.420       .  A
C2638      C2639   1.510       .  S
C2639      H2643   1.111       .  S
C2639      H2644   1.110       .  S
C2639      H2645   1.105       .  S
C2642      H2646   1.110       .  S
C2642      H2647   1.105       .  S
C2642      H2648   1.111       .  S
C2649      C2650   1.397       .  A
C2649      C2654   1.377       .  A
C2649      H2656   1.072       .  S
C2650      C2651   1.428       .  A
C2651      C2658   1.509       .  S
C2651      C2652   1.394       .  A
C2652      C2653   1.390       .  A
C2652      H2657   1.085       .  S
C2653      C2654   1.404       .  A
C2654      C2655   1.511       .  S
C2655      H2659   1.111       .  S
C2655      H2660   1.101       .  S
C2655      H2661   1.109       .  S
C2658      H2662   1.111       .  S
C2658      H2663   1.103       .  S
C2658      H2664   1.110       .  S
C2665      C2666   1.406       .  A
C2665      C2670   1.395       .  A
C2665      H2672   1.080       .  S
C2666      C2667   1.408       .  A
C2667      C2674   1.511       .  S
C2667      C2668   1.391       .  A
C2668      C2669   1.413       .  A
C2668      H2673   1.085       .  S
C2669      C2670   1.407       .  A
C2670      C2671   1.506       .  S
C2674      H2678   1.110       .  S
C2674      H2679   1.106       .  S
C2674      H2680   1.110       .  S
C2681      C2682   1.405       .  A
C2681      C2686   1.395       .  A
C2681      H2688   1.085       .  S
C2682      C2683   1.392       .  A
C2683      C2690   1.500       .  S
C2683      C2684   1.380       .  A
C2684      C2685   1.404       .  A
C2684      H2689   1.078       .  S
C2685      C2686   1.414       .  A
C2686      C2687   1.508       .  S
C2687      H2691   1.111       .  S
C2687      H2692   1.106       .  S
C2687      H2693   1.110       .  S
C2690      H2694   1.102       .  S
C2690      H2695   1.107       .  S
C2690      H2696   1.110       .  S
C2697      C2698   1.397       .  A
C2697      C2702   1.385       .  A
C2697      H2704   1.086       .  S
C2698      C2699   1.396       .  A
C2699      C2706   1.509       .  S
C2699      C2700   1.385       .  A
C2700      C2701   1.401       .  A
C2700      H2705   1.067       .  S
C2701      C2702   1.427       .  A
C2702      C2703   1.516       .  S
C2703      H2707   1.110       .  S
C2703      H2708   1.108       .  S
C2703      H2709   1.102       .  S
C2706      H2710   1.106       .  S
C2706      H2711   1.108       .  S
C2706      H2712   1.110       .  S
C2713      C2714   1.413       .  A
C2713      C2718   1.390       .  A
C2713      H2720   1.081       .  S
C2714      C2715   1.415       .  A
C2715      C2722   1.512       .  S
C2715      C2716   1.389       .  A
C2716      C2717   1.397       .  A
C2716      H2721   1.083       .  S
C2717      C2718   1.396       .  A
C2718      C2719   1.503       .  S
C2719      H2723   1.111       .  S
C2719      H2724   1.110       .  S
C2719      H2725   1.107       .  S
C2722      H2726   1.104       .  S
C2722      H2727   1.110       .  S
C2722      H2728   1.104       .  S
C2729      C2730   1.411       .  A
C2729      C2734   1.399       .  A
C2729      H2736   1.076       .  S
C2730      C2731   1.422       .  A
C2731      C2738   1.511       .  S
C2731      C2732   1.391       .  A
C2732      C2733   1.399       .  A
C2732      H2737   1.081       .  S
C2733      C2734   1.407       .  A
C2734      C2735   1.509       .  S
C2735      H2739   1.111       .  S
C2735      H2740   1.109       .  S
C2735      H2741   1.109       .  S
C2738      H2742   1.110       .  S
C2738      H2743   1.102       .  S
C2738      H2744   1.111       .  S
C2745      C2746   1.393       .  A
C2745      C2750   1.382       .  A
C2745      H2752   1.079       .  S
C2746      C2747   1.412       .  A
C2747      C2754   1.510       .  S
C2747      C2748   1.391       .  A
C2748      C2749   1.408       .  A
C2748      H2753   1.085       .  S
C2749      C2750   1.411       .  A
C2750      C2751   1.500       .  S
C2751      H2755   1.112       .  S
C2751      H2756   1.109       .  S
C2751      H2757   1.101       .  S
C2754      H2758   1.106       .  S
C2754      H2759   1.110       .  S
C2754      H2760   1.111       .  S
C2761      C2762   1.393       .  A
C2761      C2766   1.393       .  A
C2761      H2768   1.080       .  S
C2762      C2763   1.414       .  A
C2763      C2770   1.512       .  S
C2763      C2764   1.389       .  A
C2764      C2765   1.401       .  A
C2764      H2769   1.076       .  S
C2765      C2766   1.425       .  A
C2766      C2767   1.512       .  S
C2767      H2771   1.111       .  S
C2767      H2772   1.103       .  S
C2767      H2773   1.110       .  S
C2770      H2774   1.109       .  S
C2770      H2775   1.111       .  S
C2770      H2776   1.111       .  S
C2777      C2778   1.397       .  A
C2777      C2782   1.381       .  A
C2777      H2784   1.085       .  S
C2778      C2779   1.408       .  A
C2779      C2786   1.511       .  S
C2779      C2780   1.374       .  A
C2780      C2781   1.391       .  A
C2780      H2785   1.073       .  S
C2781      C2782   1.424       .  A
C2782      C2783   1.517       .  S
C2783      H2787   1.111       .  S
C2783      H2788   1.100       .  S
C2783      H2789   1.101       .  S
C2786      H2790   1.104       .  S
C2786      H2791   1.111       .  S
C2786      H2792   1.111       .  S
C2793      C2794   1.407       .  A
C2793      C2798   1.393       .  A
C2793      H2800   1.074       .  S
C2794      C2795   1.422       .  A
C2795      C2802   1.512       .  S
C2795      C2796   1.391       .  A
C2796      C2797   1.399       .  A
C2796      H2801   1.085       .  S
C2797      C2798   1.402       .  A
C2798      C2799   1.508       .  S
C2799      H2803   1.111       .  S
C2799      H2804   1.110       .  S
C2799      H2805   1.108       .  S
C2802      H2806   1.111       .  S
C2802      H2807   1.103       .  S
C2802      H2808   1.110       .  S
