geometry optimzed in LAMMPS
_audit_creation_date              2020-12-01 
_audit_creation_method            'lammps2cif' 
_symmetry_space_group_name_H-M    'P1' 
_symmetry_Int_Tables_number       1 
_symmetry_cell_setting            triclinic 
loop_ 
_symmetry_equiv_pos_as_xyz 
  x,y,z 
_cell_length_a                    38.87519774 
_cell_length_b                    38.716876181735714 
_cell_length_c                    59.23761699975928 
_cell_angle_alpha                 90.23444201336193 
_cell_angle_beta                  90.22895281531329 
_cell_angle_gamma                 90.0005425335874 
loop_ 
_atom_site_label 
_atom_site_type_symbol 
_atom_site_fract_x 
_atom_site_fract_y 
_atom_site_fract_z 
_atom_site_charge 
O1          O  0.41028141  0.21274185  0.12440648    -0.70800
O2          O  0.44011857  0.11839110  0.12383042    -0.71100
O3          O  0.41720542  0.16337634  0.09284698    -0.70900
O4          O  0.43433105  0.16769408  0.15543013    -0.70900
O5          O  0.38311503  0.14813419  0.16217810    -0.70900
O6          O  0.36397887  0.14937275  0.09871415    -0.70900
O7          O  0.38709152  0.10218913  0.12812930    -0.70800
O8          O  0.35874081  0.19524337  0.13270738    -0.71000
V9          V  0.42446825  0.16529338  0.12426535     1.35200
V10         V  0.37421420  0.14912233  0.13036695     1.35200
C11         C  0.37912831  0.21975652  0.12867679     0.78400
C12         C  0.41826493  0.09419912  0.12543725     0.78500
C13         C  0.38796632  0.15590029  0.08492485     0.78300
C14         C  0.41236098  0.15755491  0.16954559     0.78300
O15         O  0.49595495  0.72337960  0.13514974    -0.70800
O16         O  0.46218998  0.81594599  0.12761468    -0.71100
O17         O  0.49133964  0.76765192  0.10069295    -0.70900
O18         O  0.46559406  0.77106036  0.16205913    -0.70900
O19         O  0.51555575  0.79178106  0.17127261    -0.70900
O20         O  0.54187406  0.78822863  0.10898340    -0.70900
O21         O  0.51304752  0.83538602  0.13605903    -0.70800
O22         O  0.54572575  0.74476743  0.14414916    -0.71000
V23         V  0.47969573  0.76994515  0.13157220     1.35200
V24         V  0.52804561  0.78958217  0.13999411     1.35200
C25         C  0.52716711  0.71852231  0.14066253     0.78400
C26         C  0.48239843  0.84141695  0.13034883     0.78500
C27         C  0.52079310  0.77700650  0.09431438     0.78300
C28         C  0.48572410  0.78214105  0.17721088     0.78300
O29         O  0.41178203  0.20775176  0.87585540    -0.70800
O30         O  0.44423320  0.11482522  0.88286573    -0.71100
O31         O  0.44103825  0.16030713  0.84846092    -0.70900
O32         O  0.41573751  0.16299445  0.90991591    -0.70900
O33         O  0.36508923  0.14276621  0.90163765    -0.70900
O34         O  0.39043066  0.14103690  0.83936435    -0.70900
O35         O  0.39347223  0.09610213  0.87360199    -0.70800
O36         O  0.36131383  0.18749978  0.86702730    -0.71000
V37         V  0.42727183  0.16102539  0.87907096     1.35200
V38         V  0.37857835  0.14223952  0.87059611     1.35200
C39         C  0.38071097  0.21314191  0.87037571     0.78400
C40         C  0.42409374  0.08957081  0.87926685     0.78500
C41         C  0.42020955  0.15050211  0.83333109     0.78300
C42         C  0.38622245  0.15381198  0.91632031     0.78300
O43         O  0.47970445  0.71696348  0.88520522    -0.70800
O44         O  0.45865538  0.81332647  0.89051515    -0.71100
O45         O  0.45723439  0.76728006  0.85652479    -0.70900
O46         O  0.47988019  0.76347537  0.91870721    -0.70900
O47         O  0.53302122  0.77601742  0.91131217    -0.70900
O48         O  0.51021577  0.77983734  0.84842878    -0.70900
O49         O  0.51178311  0.82549200  0.88286777    -0.70800
O50         O  0.53239560  0.73048358  0.87686673    -0.71000
V51         V  0.46987309  0.76542465  0.88749339     1.35200
V52         V  0.52079865  0.77765711  0.87997845     1.35200
C53         C  0.51015518  0.70754969  0.88067924     0.78400
C54         C  0.48196600  0.83586260  0.88783481     0.78500
C55         C  0.47951343  0.77487048  0.84188679     0.78300
C56         C  0.51003530  0.76925458  0.92577208     0.78300
O57         O  0.39566023  0.72564482  0.63788990    -0.70800
O58         O  0.43104600  0.81661509  0.62764373    -0.71100
O59         O  0.42529790  0.77531869  0.66383308    -0.70900
O60         O  0.40246521  0.76673176  0.60188677    -0.70900
O61         O  0.35279231  0.79063823  0.60779468    -0.70900
O62         O  0.37413501  0.79478351  0.67107080    -0.70900
O63         O  0.38087860  0.83780817  0.63561808    -0.70800
O64         O  0.34516286  0.74800745  0.64328299    -0.71000
V65         V  0.41266479  0.77149941  0.63297924     1.35200
V66         V  0.36422334  0.79237447  0.63934174     1.35200
C67         C  0.36391383  0.72146360  0.64192794     0.78400
C68         C  0.41172488  0.84280176  0.62992386     0.78500
C69         C  0.40376805  0.78614039  0.67812291     0.78300
C70         C  0.37411677  0.77737651  0.59411028     0.78300
O71         O  0.50020251  0.20950027  0.62795776    -0.70800
O72         O  0.46910663  0.11629351  0.62025324    -0.71100
O73         O  0.47255242  0.16106831  0.65504236    -0.70900
O74         O  0.49584884  0.16509846  0.59340651    -0.70900
O75         O  0.54697524  0.14533792  0.60063766    -0.70900
O76         O  0.52380462  0.14285270  0.66335937    -0.70900
O77         O  0.52031392  0.09806791  0.62882722    -0.70800
O78         O  0.55130292  0.19004196  0.63569125    -0.71000
V79         V  0.48541991  0.16259721  0.62433601     1.35200
V80         V  0.53464155  0.14448348  0.63193823     1.35200
C81         C  0.53130095  0.21543717  0.63316913     0.78400
C82         C  0.48957053  0.09127585  0.62353220     0.78500
C83         C  0.49391010  0.15134445  0.66981636     0.78300
C84         C  0.52506309  0.15603742  0.58637416     0.78300
O85         O  0.39926008  0.71581046  0.38384526    -0.70800
O86         O  0.43200619  0.80900682  0.38618837    -0.71100
O87         O  0.40688100  0.76405981  0.41635180    -0.70900
O88         O  0.42537660  0.76088463  0.35382220    -0.70900
O89         O  0.37520860  0.78277489  0.34656321    -0.70900
O90         O  0.35420048  0.77962915  0.40981436    -0.70900
O91         O  0.37961683  0.82705246  0.38147890    -0.70800
O92         O  0.34859059  0.73508030  0.37469305    -0.71000
V93         V  0.41485608  0.76272000  0.38493018     1.35200
V94         V  0.36533018  0.78067818  0.37824867     1.35200
C95         C  0.36824182  0.70982127  0.37848959     0.78400
C96         C  0.41100641  0.83394197  0.38456151     0.78500
C97         C  0.37769297  0.77231759  0.42395718     0.78300
C98         C  0.40426321  0.77248129  0.33948609     0.78300
O99         O  0.48455316  0.20361530  0.38039289    -0.70800
O100        O  0.45614583  0.10923622  0.37987805    -0.71100
O101        O  0.48025603  0.15319899  0.41127769    -0.70900
O102        O  0.46001726  0.15965317  0.34889135    -0.70900
O103        O  0.51013773  0.13815413  0.34105235    -0.70900
O104        O  0.53385025  0.14306454  0.40354637    -0.70900
O105        O  0.50950006  0.09374227  0.37596624    -0.70800
O106        O  0.53487248  0.18731199  0.36859121    -0.71000
V107        V  0.47114790  0.15614967  0.37995039     1.35200
V108        V  0.52115821  0.14087313  0.37240802     1.35200
C109        C  0.51456785  0.21142232  0.37396087     0.78400
C110        C  0.47840706  0.08540344  0.37873156     0.78500
C111        C  0.51060226  0.14780879  0.41815274     0.78300
C112        C  0.48120746  0.14913289  0.33426803     0.78300
O113        O  0.18817393  0.42164983  0.12966671    -0.70800
O114        O  0.09601059  0.45769999  0.12782240    -0.71100
O115        O  0.14338332  0.44880511  0.16019063    -0.70900
O116        O  0.14050284  0.43179907  0.09732245    -0.70900
O117        O  0.12072008  0.38020122  0.10311018    -0.70900
O118        O  0.12355180  0.39727817  0.16659330    -0.70900
O119        O  0.07686660  0.40594858  0.13391669    -0.70800
O120        O  0.16703104  0.37076617  0.13613227    -0.71000
V121        V  0.14176075  0.43900388  0.12886598     1.35200
V122        V  0.12247176  0.38959351  0.13477589     1.35200
C123        C  0.19302119  0.38967651  0.13322899     0.78400
C124        C  0.07069744  0.43761152  0.13099692     0.78500
C125        C  0.13313174  0.42642012  0.17405143     0.78300
C126        C  0.13014520  0.40332768  0.08938032     0.78300
O127        O  0.69899120  0.49908851  0.13772970    -0.70800
O128        O  0.79447792  0.47508656  0.13394156    -0.71100
O129        O  0.74664416  0.47383461  0.16672979    -0.70900
O130        O  0.74649719  0.49903053  0.10524037    -0.70900
O131        O  0.75920665  0.55200762  0.11395751    -0.70900
O132        O  0.76265322  0.52550750  0.17635845    -0.70900
O133        O  0.80793948  0.52801799  0.14221356    -0.70800
O134        O  0.71400165  0.55072383  0.14840960    -0.71000
V135        V  0.74695471  0.48775354  0.13614320     1.35200
V136        V  0.76061910  0.53806814  0.14507607     1.35200
C137        C  0.69052365  0.52938429  0.14367426     0.78400
C138        C  0.81751731  0.49785241  0.13714692     0.78500
C139        C  0.75514154  0.49486787  0.18211416     0.78300
C140        C  0.75233700  0.52954535  0.09892101     0.78300
O141        O  0.18792724  0.41078963  0.87845828    -0.70800
O142        O  0.09776580  0.44966075  0.88674416    -0.71100
O143        O  0.14542146  0.41951520  0.91357026    -0.70900
O144        O  0.14100433  0.44203243  0.85194202    -0.70900
O145        O  0.11761963  0.39252629  0.84417929    -0.70900
O146        O  0.12242496  0.36936773  0.90687824    -0.70900
O147        O  0.07576054  0.39918885  0.87984020    -0.70800
O148        O  0.16396286  0.36145943  0.87101921    -0.71000
V149        V  0.14256633  0.42955197  0.88256529     1.35200
V150        V  0.12043815  0.38160287  0.87561682     1.35200
C151        C  0.19104069  0.37912549  0.87316576     0.78400
C152        C  0.07130785  0.43064127  0.88456485     0.78500
C153        C  0.13505044  0.39081938  0.92085301     0.78300
C154        C  0.12848636  0.42162355  0.83747998     0.78300
O155        O  0.70370841  0.51294068  0.89118234    -0.70800
O156        O  0.79737767  0.48248872  0.88892670    -0.71100
O157        O  0.75490507  0.50488099  0.92163405    -0.70900
O158        O  0.74633248  0.48971874  0.85870808    -0.70900
O159        O  0.76690212  0.54080542  0.85222312    -0.70900
O160        O  0.76771481  0.55872921  0.91594729    -0.70900
O161        O  0.81385195  0.53583146  0.88563509    -0.70800
O162        O  0.72089044  0.56478947  0.88299104    -0.71000
V163        V  0.75085517  0.49852092  0.89001078     1.35200
V164        V  0.76695901  0.54905192  0.88421717     1.35200
C165        C  0.69656312  0.54437712  0.88754412     0.78400
C166        C  0.82158829  0.50428523  0.88735071     0.78500
C167        C  0.76223088  0.53429262  0.92964022     0.78300
C168        C  0.75637988  0.51192479  0.84464746     0.78300
O169        O  0.70599384  0.43221672  0.63424205    -0.70800
O170        O  0.80141115  0.45675201  0.63442258    -0.71100
O171        O  0.75646126  0.43348473  0.60352700    -0.70900
O172        O  0.75116215  0.45664854  0.66549948    -0.70900
O173        O  0.76783558  0.40504290  0.67451948    -0.70900
O174        O  0.76658258  0.37992385  0.61187498    -0.70900
O175        O  0.81435827  0.40314973  0.64090314    -0.70800
O176        O  0.72011670  0.38064208  0.64530335    -0.71000
V177        V  0.75393964  0.44379911  0.63466533     1.35200
V178        V  0.76691769  0.39321167  0.64306784     1.35200
C179        C  0.69710726  0.40183898  0.63956023     0.78400
C180        C  0.82414870  0.43357252  0.63688739     0.78500
C181        C  0.76215121  0.40295440  0.59697675     0.78300
C182        C  0.75962984  0.43538420  0.68066270     0.78300
O183        O  0.19459092  0.49961705  0.63056171    -0.70800
O184        O  0.10232035  0.46511230  0.62760459    -0.71100
O185        O  0.14719594  0.49129098  0.59777438    -0.70900
O186        O  0.14967878  0.47251710  0.66012400    -0.70900
O187        O  0.12567682  0.52195182  0.66717471    -0.70900
O188        O  0.13186085  0.54420218  0.60451984    -0.70900
O189        O  0.08350590  0.51767071  0.63130022    -0.70800
O190        O  0.17417935  0.54959568  0.64065457    -0.71000
V191        V  0.14814553  0.48310223  0.62911430     1.35200
V192        V  0.12926902  0.53245015  0.63578924     1.35200
C193        C  0.19981043  0.53051286  0.63682836     0.78400
C194        C  0.07722774  0.48597971  0.62856737     0.78500
C195        C  0.13943721  0.52080890  0.59034879     0.78300
C196        C  0.13684006  0.49317946  0.67427725     0.78300
O197        O  0.69985137  0.41156136  0.38760134    -0.70800
O198        O  0.79352487  0.43975513  0.39414659    -0.71100
O199        O  0.74794433  0.43749377  0.35985181    -0.70900
O200        O  0.74494635  0.41450442  0.42168860    -0.70900
O201        O  0.76673191  0.36401249  0.41448822    -0.70900
O202        O  0.76057784  0.38447384  0.35129132    -0.70900
O203        O  0.80983957  0.38885190  0.38298373    -0.70800
O204        O  0.71742652  0.35871182  0.38297662    -0.71000
V205        V  0.74694304  0.42488221  0.39063181     1.35200
V206        V  0.76328232  0.37493824  0.38301517     1.35200
C207        C  0.69292388  0.37980026  0.38534671     0.78400
C208        C  0.81763862  0.41907699  0.38917341     0.78500
C209        C  0.75408387  0.41505692  0.34487874     0.78300
C210        C  0.75568366  0.38575210  0.42879409     0.78300
O211        O  0.18335967  0.50304023  0.37845754    -0.70800
O212        O  0.09203019  0.46969261  0.38928609    -0.71100
O213        O  0.13339355  0.47332597  0.35298401    -0.70900
O214        O  0.14233888  0.49841340  0.41449170    -0.70900
O215        O  0.11969437  0.54862955  0.40761132    -0.70900
O216        O  0.11453137  0.52468767  0.34511670    -0.70900
O217        O  0.07206351  0.52032063  0.38075056    -0.70800
O218        O  0.16193027  0.55382714  0.37185452    -0.71000
V219        V  0.13736273  0.48703230  0.38362733     1.35200
V220        V  0.11748189  0.53584077  0.37646019     1.35200
C221        C  0.18797645  0.53456409  0.37356609     0.78400
C222        C  0.06643810  0.48974835  0.38697393     0.78500
C223        C  0.12302463  0.49475638  0.33845299     0.78300
C224        C  0.13231215  0.52745510  0.42160929     0.78300
C225        C  0.96971887  0.49244748  0.39474962    -0.27300
C226        C  0.96122805  0.45728508  0.39521690     0.06400
C227        C  0.98791132  0.43264939  0.39459034     0.26000
C228        C  0.02226619  0.44319412  0.39260406    -0.11700
C229        C  0.03057237  0.47841704  0.39113960    -0.25700
C230        C  0.00388359  0.50300196  0.39284123     0.36800
C231        C  0.92449283  0.44677780  0.39455131     0.06400
F232        F  0.98073065  0.39839186  0.39571342    -0.19500
H233        H  0.04225918  0.42376905  0.39161333     0.16200
F234        F  0.01058486  0.53740595  0.39233550    -0.23200
H235        H  0.94970629  0.51191297  0.39504310     0.18000
C236        C  0.89997455  0.46211206  0.40891533     0.26000
C237        C  0.86508292  0.45360741  0.40682350    -0.11700
C238        C  0.85414999  0.42937444  0.39063991    -0.25800
C239        C  0.87866664  0.41397569  0.37637186     0.36900
C240        C  0.91337548  0.42278670  0.37826698    -0.27400
F241        F  0.90980402  0.48484135  0.42521208    -0.19500
H242        H  0.84668622  0.46543003  0.41816543     0.16200
F243        F  0.86898582  0.39107343  0.36013191    -0.23200
H244        H  0.93155416  0.41134156  0.36661564     0.18000
C245        C  0.12720487  0.56197917  0.53246979    -0.27300
C246        C  0.13737697  0.53474856  0.51822209     0.06400
C247        C  0.14798996  0.50340092  0.52787082     0.26000
C248        C  0.14885470  0.49956308  0.55121533    -0.11700
C249        C  0.13897623  0.52671202  0.56562979    -0.25700
C250        C  0.12799158  0.55809343  0.55601812     0.36800
C251        C  0.13719256  0.53852915  0.49332588     0.06400
F252        F  0.15678639  0.47604403  0.51468220    -0.19500
H253        H  0.15709023  0.47495465  0.55798445     0.16200
F254        F  0.11782200  0.58486539  0.56925245    -0.23200
H255        H  0.11896545  0.58635008  0.52534980     0.18000
C256        C  0.10731336  0.54861950  0.48156339     0.26000
C257        C  0.10646218  0.54733807  0.45790360    -0.11700
C258        C  0.13513484  0.53545610  0.44582863    -0.25800
C259        C  0.16543371  0.52702772  0.45753368     0.36900
C260        C  0.16651292  0.52895507  0.48102978    -0.27400
F261        F  0.07829764  0.55728890  0.49292327    -0.19500
H262        H  0.08277381  0.55350115  0.44910658     0.16200
F263        F  0.19373578  0.51602524  0.44622877    -0.23200
H264        H  0.18996561  0.52167266  0.48973161     0.18000
C265        C  0.78164529  0.35896512  0.48815332    -0.27300
C266        C  0.75678174  0.37669060  0.50089133     0.06400
C267        C  0.72976801  0.39356868  0.48968517     0.26000
C268        C  0.72885977  0.39464442  0.46618784    -0.11700
C269        C  0.75474667  0.37882239  0.45331433    -0.25700
C270        C  0.78063758  0.35989834  0.46443121     0.36800
C271        C  0.76103704  0.38180613  0.52551258     0.06400
F272        F  0.70500078  0.41031349  0.50155953    -0.19500
H273        H  0.70838487  0.40895055  0.45800782     0.16200
F274        F  0.80623468  0.34459239  0.45251878    -0.23200
H275        H  0.80278963  0.34604398  0.49656716     0.18000
C276        C  0.75801474  0.35450387  0.54093355     0.26000
C277        C  0.75921849  0.36115841  0.56427089    -0.11700
C278        C  0.76336881  0.39511557  0.57244029    -0.25800
C279        C  0.76756839  0.42210813  0.55678118     0.36900
C280        C  0.76633957  0.41540253  0.53366409    -0.27400
F281        F  0.75248792  0.32179514  0.53345112    -0.19500
H282        H  0.75592177  0.33994812  0.57592457     0.16200
F283        F  0.77278052  0.45517225  0.56372016    -0.23200
H284        H  0.76905158  0.43669136  0.52198227     0.18000
C285        C  0.91030067  0.47994823  0.63623664    -0.27300
C286        C  0.93269150  0.45294692  0.63012276     0.06400
C287        C  0.91903463  0.41987861  0.62619685     0.26000
C288        C  0.88377933  0.41397949  0.62853728    -0.11700
C289        C  0.86132935  0.44093366  0.63461284    -0.25700
C290        C  0.87490322  0.47411715  0.63836616     0.36800
C291        C  0.97019271  0.45942963  0.62812766     0.06400
F292        F  0.93964752  0.39343792  0.61957794    -0.19500
H293        H  0.87393758  0.38826692  0.62527525     0.16200
F294        F  0.85420838  0.50065185  0.64468347    -0.23200
H295        H  0.92033673  0.50553071  0.63966215     0.18000
C296        C  0.98239706  0.48744118  0.61544780     0.26000
C297        C  0.01749820  0.49501725  0.61504647    -0.11700
C298        C  0.04116920  0.47451295  0.62690953    -0.25800
C299        C  0.02928829  0.44567680  0.63888568     0.36900
C300        C  0.99400696  0.43831593  0.63954129    -0.27400
F301        F  0.96036026  0.50754476  0.60347090    -0.19500
H302        H  0.02622815  0.51728527  0.60565701     0.16200
F303        F  0.05143026  0.42604143  0.65111012    -0.23200
H304        H  0.98515715  0.41682110  0.64960527     0.18000
C305        C  0.77888625  0.50942821  0.78199345    -0.27300
C306        C  0.75894764  0.48131167  0.77437729     0.06400
C307        C  0.73730882  0.46457619  0.78981934     0.26000
C308        C  0.73613176  0.47534289  0.81237408    -0.11700
C309        C  0.75632453  0.50315855  0.82015244    -0.25700
C310        C  0.77765233  0.52030940  0.80463771     0.36800
C311        C  0.76040521  0.46961893  0.75038006     0.06400
F312        F  0.71679831  0.43810418  0.78301207    -0.19500
H313        H  0.71933900  0.46170356  0.82384641     0.16200
F314        F  0.79825208  0.54668301  0.81146905    -0.23200
H315        H  0.79595202  0.52258344  0.77045679     0.18000
C316        C  0.75514464  0.49307170  0.73266372     0.26000
C317        C  0.75492066  0.48160787  0.71021963    -0.11700
C318        C  0.76020228  0.44654051  0.70479042    -0.25800
C319        C  0.76613616  0.42313095  0.72253488     0.36900
C320        C  0.76608145  0.43461887  0.74504839    -0.27400
F321        F  0.74911483  0.52696402  0.73706652    -0.19500
H322        H  0.75046477  0.50038304  0.69702541     0.16200
F323        F  0.77166294  0.38912911  0.71823856    -0.23200
H324        H  0.77054383  0.41610097  0.75840029     0.18000
C325        C  0.13743188  0.47507049  0.78435695    -0.27300
C326        C  0.12524874  0.45232865  0.76773243     0.06400
C327        C  0.11345567  0.41941431  0.77413290     0.26000
C328        C  0.11423023  0.40950712  0.79684271    -0.11700
C329        C  0.12687742  0.43218293  0.81348680    -0.25700
C330        C  0.13826056  0.46529952  0.80695433     0.36800
C331        C  0.12694378  0.46261319  0.74372791     0.06400
F332        F  0.10098665  0.39696753  0.75845554    -0.19500
H333        H  0.10514627  0.38402351  0.80136772     0.16200
F334        F  0.15062492  0.48836156  0.82228813    -0.23200
H335        H  0.14714980  0.50029798  0.77975902     0.18000
C336        C  0.11398521  0.49465478  0.73643958     0.26000
C337        C  0.11761868  0.50473369  0.71391803    -0.11700
C338        C  0.13426515  0.48310698  0.69830546    -0.25800
C339        C  0.14726515  0.45104190  0.70573417     0.36900
C340        C  0.14357630  0.44105744  0.72818255    -0.27400
F341        F  0.09737531  0.51597172  0.75102033    -0.19500
H342        H  0.10714792  0.52936374  0.70867258     0.16200
F343        F  0.16371651  0.42918987  0.69141369    -0.23200
H344        H  0.15435943  0.41661320  0.73354794     0.18000
C345        C  0.99212553  0.48888317  0.88417673    -0.27300
C346        C  0.96563958  0.46470076  0.88791993     0.06400
C347        C  0.97470848  0.43005576  0.89178052     0.26000
C348        C  0.00910601  0.41979631  0.89122578    -0.11700
C349        C  0.03557220  0.44368555  0.88706148    -0.25700
C350        C  0.02680564  0.47858706  0.88387912     0.36800
C351        C  0.92869653  0.47528957  0.88755528     0.06400
F352        F  0.95033772  0.40599539  0.89635872    -0.19500
H353        H  0.01502477  0.39279183  0.89398549     0.16200
F354        F  0.05146574  0.50244410  0.87956182    -0.23200
H355        H  0.98592816  0.51567043  0.88090386     0.18000
C356        C  0.91741944  0.50502167  0.89912201     0.26000
C357        C  0.88258391  0.51425330  0.89886988    -0.11700
C358        C  0.85814688  0.49369482  0.88757746    -0.25800
C359        C  0.86922703  0.46397584  0.87606028     0.36900
C360        C  0.90418096  0.45516068  0.87584528    -0.27400
F361        F  0.93983672  0.52460950  0.91125696    -0.19500
H362        H  0.87454057  0.53723800  0.90791180     0.16200
F363        F  0.84646608  0.44414402  0.86437021    -0.23200
H364        H  0.91213896  0.43260851  0.86633630     0.18000
C365        C  0.77061523  0.49159496  0.24580550    -0.27300
C366        C  0.75785198  0.45862532  0.25114045     0.06400
C367        C  0.74419457  0.43800206  0.23373355     0.26000
C368        C  0.74345524  0.45010769  0.21151000    -0.11700
C369        C  0.75618830  0.48310561  0.20604177    -0.25700
C370        C  0.76997440  0.50374148  0.22350816     0.36800
C371        C  0.75705554  0.44676162  0.27500298     0.06400
F372        F  0.73040772  0.40660336  0.23832514    -0.19500
H373        H  0.73248787  0.43360001  0.19855227     0.16200
F374        F  0.78306599  0.53548637  0.21910488    -0.23200
H375        H  0.78119464  0.50795680  0.25898544     0.18000
C376        C  0.77150146  0.41496010  0.28161120     0.26000
C377        C  0.76991484  0.40427603  0.30422427    -0.11700
C378        C  0.75406786  0.42515131  0.32065442    -0.25800
C379        C  0.73938809  0.45681453  0.31385775     0.36900
C380        C  0.74105218  0.46740810  0.29136242    -0.27400
F381        F  0.78799856  0.39471421  0.26634587    -0.19500
H382        H  0.78170376  0.38000390  0.30895785     0.16200
F383        F  0.72302340  0.47758252  0.32888820    -0.23200
H384        H  0.72940050  0.49175737  0.28662350     0.18000
C385        C  0.76964332  0.56935360  0.04111752    -0.27300
C386        C  0.75463136  0.54433598  0.02685669     0.06400
C387        C  0.73612327  0.51706889  0.03658557     0.26000
C388        C  0.73450134  0.51365422  0.05995232    -0.11700
C389        C  0.75112138  0.53733309  0.07437291    -0.25700
C390        C  0.76789183  0.56597128  0.06475797     0.36800
C391        C  0.76018407  0.54446841  0.00202371     0.06400
F392        F  0.72012358  0.49314988  0.02340453    -0.19500
H393        H  0.72074162  0.49174103  0.06677423     0.16200
F394        F  0.78403694  0.58959510  0.07805340    -0.23200
H395        H  0.78396667  0.59062654  0.03396028     0.18000
C396        C  0.75059890  0.57259371  0.98838164     0.26000
C397        C  0.75271292  0.56998989  0.96472305    -0.11700
C398        C  0.76405408  0.53922472  0.95444050    -0.25800
C399        C  0.77508845  0.51185285  0.96821365     0.36900
C400        C  0.77334108  0.51461265  0.99166423    -0.27400
F401        F  0.73745318  0.60170499  0.99782328    -0.19500
H402        H  0.74399908  0.59136279  0.95443658     0.16200
F403        F  0.78734132  0.48216681  0.95898563    -0.23200
H404        H  0.78152622  0.49289334  0.00183912     0.18000
C405        C  0.14434639  0.42479014  0.23754829    -0.27300
C406        C  0.12511362  0.45399952  0.24412805     0.06400
C407        C  0.10843631  0.47350653  0.22728815     0.26000
C408        C  0.11170851  0.46444161  0.20455123    -0.11700
C409        C  0.13061871  0.43521271  0.19815010    -0.25700
C410        C  0.14665354  0.41513696  0.21477918     0.36800
C411        C  0.12317624  0.46444830  0.26835616     0.06400
F412        F  0.08826762  0.50087682  0.23277505    -0.19500
H413        H  0.09880601  0.47990765  0.19187555     0.16200
F414        F  0.16547893  0.38698780  0.20893099    -0.23200
H415        H  0.15810372  0.40969494  0.24999777     0.18000
C416        C  0.11837383  0.43979522  0.28548705     0.26000
C417        C  0.11802480  0.44993330  0.30818362    -0.11700
C418        C  0.12161108  0.48485638  0.31430839    -0.25800
C419        C  0.12545261  0.50963022  0.29723300     0.36900
C420        C  0.12670093  0.49941493  0.27456982    -0.27400
F421        F  0.11345405  0.40595100  0.28034303    -0.19500
H422        H  0.11470701  0.43039265  0.32103014     0.16200
F423        F  0.12945306  0.54356595  0.30244955    -0.23200
H424        H  0.13119916  0.51892699  0.26188041     0.18000
C425        C  0.13374817  0.42017986  0.02651630    -0.27300
C426        C  0.13272274  0.38662841  0.01752640     0.06400
C427        C  0.12956788  0.35843117  0.03224169     0.26000
C428        C  0.12793145  0.36392327  0.05563062    -0.11700
C429        C  0.12966364  0.39755668  0.06464519    -0.25700
C430        C  0.13222934  0.42571682  0.04974963     0.36800
C431        C  0.13582173  0.38201044  0.99279401     0.06400
F432        F  0.12939276  0.32563211  0.02408161    -0.19500
H433        H  0.12618955  0.34182532  0.06671131     0.16200
F434        F  0.13315655  0.45874031  0.05753861    -0.23200
H435        H  0.13578536  0.44226922  0.01543113     0.18000
C436        C  0.11025128  0.36496602  0.98007034     0.26000
C437        C  0.11119608  0.36571931  0.95640425    -0.11700
C438        C  0.13737316  0.38381626  0.94526332    -0.25800
C439        C  0.16398017  0.39900811  0.95805292     0.36900
C440        C  0.16315065  0.39802375  0.98154823    -0.27400
F441        F  0.08311791  0.34986450  0.99045644    -0.19500
H442        H  0.09036253  0.35408503  0.94685323     0.16200
F443        F  0.19030512  0.41580166  0.94783087    -0.23200
H444        H  0.18329888  0.41092696  0.99105312     0.18000
C445        C  0.98862738  0.49090674  0.12383764    -0.27300
C446        C  0.96387209  0.46811782  0.13272302     0.06400
C447        C  0.97505593  0.43659926  0.14184922     0.26000
C448        C  0.00969114  0.42750356  0.14123850    -0.11700
C449        C  0.03444619  0.44966605  0.13189155    -0.25700
C450        C  0.02370245  0.48195373  0.12358351     0.36800
C451        C  0.92647577  0.47669841  0.13254668     0.06400
F452        F  0.95254485  0.41464733  0.15178889    -0.19500
H453        H  0.01714108  0.40283209  0.14829928     0.16200
F454        F  0.04677358  0.50442590  0.11476311    -0.23200
H455        H  0.98075177  0.51537174  0.11669084     0.18000
C456        C  0.91451236  0.50906006  0.13995868     0.26000
C457        C  0.87916591  0.51564712  0.14116169    -0.11700
C458        C  0.85486297  0.49015502  0.13516909    -0.25800
C459        C  0.86684602  0.45800226  0.12736970     0.36900
C460        C  0.90221024  0.45157962  0.12590349    -0.27400
F461        F  0.93685168  0.53390266  0.14690695    -0.19500
H462        H  0.87083529  0.54070777  0.14721600     0.16200
F463        F  0.84453982  0.43268250  0.12119052    -0.23200
H464        H  0.91068559  0.42666566  0.11968012     0.18000
C465        C  0.54071487  0.30031203  0.39362305    -0.27300
C466        C  0.56568866  0.30841023  0.37740691     0.06400
C467        C  0.56894373  0.28741410  0.35816422     0.26000
C468        C  0.54992966  0.25699156  0.35629651    -0.11700
C469        C  0.52692645  0.24737376  0.37334239    -0.25700
C470        C  0.52094687  0.27017925  0.39144422     0.36800
C471        C  0.59379759  0.33265624  0.38287944     0.06400
F472        F  0.59334275  0.29426961  0.34246798    -0.19500
H473        H  0.55479513  0.23977593  0.34219682     0.16200
F474        F  0.49883349  0.26156760  0.40817811    -0.23200
H475        H  0.53827554  0.31602827  0.40870277     0.18000
C476        C  0.60044443  0.36181634  0.36949862     0.26000
C477        C  0.63207064  0.37908543  0.37141121    -0.11700
C478        C  0.65747753  0.36669842  0.38620223    -0.25800
C479        C  0.64993661  0.33881494  0.40043895     0.36900
C480        C  0.61819069  0.32225383  0.39894679    -0.27400
F481        F  0.57721478  0.37224884  0.35378713    -0.19500
H482        H  0.63757990  0.40054712  0.36032215     0.16200
F483        F  0.67392416  0.32663341  0.41511347    -0.23200
H484        H  0.61363234  0.29958089  0.40918163     0.18000
C485        C  0.32697228  0.63053285  0.35349767    -0.27300
C486        C  0.31162308  0.61580838  0.37266116     0.06400
C487        C  0.32007918  0.62929380  0.39412165     0.26000
C488        C  0.34129764  0.65843826  0.39608830    -0.11700
C489        C  0.35431418  0.67456300  0.37677604    -0.25700
C490        C  0.34776170  0.65992310  0.35548598     0.36800
C491        C  0.28291065  0.59058313  0.37000095     0.06400
F492        F  0.30529889  0.61640374  0.41302147    -0.19500
H493        H  0.34556143  0.66987804  0.41258649     0.16200
F494        F  0.35965159  0.67537997  0.33652547    -0.23200
H495        H  0.32116759  0.62047856  0.33682354     0.18000
C496        C  0.25514402  0.59845201  0.35559311     0.26000
C497        C  0.22539080  0.57837329  0.35582437    -0.11700
C498        C  0.22243616  0.54993814  0.37030276    -0.25800
C499        C  0.25097626  0.54035943  0.38353974     0.36900
C500        C  0.28093426  0.56071271  0.38344667    -0.27400
F501        F  0.25548665  0.62725275  0.34260088    -0.19500
H502        H  0.20380441  0.58617202  0.34539518     0.16200
F503        F  0.24899796  0.51308418  0.39779461    -0.23200
H504        H  0.30207870  0.55393903  0.39453193     0.18000
C505        C  0.40866882  0.93119353  0.39136764    -0.27300
C506        C  0.44171800  0.94077450  0.38429188     0.06400
C507        C  0.46544751  0.91462817  0.37859384     0.26000
C508        C  0.45581618  0.87977298  0.37949315    -0.11700
C509        C  0.42230905  0.87040718  0.38575731    -0.25700
C510        C  0.39890658  0.89651953  0.39194509     0.36800
C511        C  0.45097340  0.97798837  0.38285752     0.06400
F512        F  0.49746736  0.92275560  0.37126755    -0.19500
H513        H  0.47418933  0.86017030  0.37450305     0.16200
F514        F  0.36651742  0.88859412  0.39867192    -0.23200
H515        H  0.39023201  0.95067300  0.39645552     0.18000
C516        C  0.42848020  0.00199687  0.37271142     0.26000
C517        C  0.43716673  0.03703987  0.37185352    -0.11700
C518        C  0.46868454  0.04868019  0.38059150    -0.25800
C519        C  0.49119564  0.02478778  0.39069263     0.36900
C520        C  0.48223422  0.98988543  0.39196029    -0.27400
F521        F  0.39854294  0.99148085  0.36301936    -0.19500
H522        H  0.41963883  0.05497405  0.36380685     0.16200
F523        F  0.52151697  0.03531015  0.39985898    -0.23200
H524        H  0.49964049  0.97217048  0.40030708     0.18000
C525        C  0.58620309  0.28905369  0.65438823    -0.27300
C526        C  0.58032389  0.31465151  0.63806237     0.06400
C527        C  0.55511079  0.30856856  0.62130935     0.26000
C528        C  0.53733087  0.27696010  0.62053661    -0.11700
C529        C  0.54488426  0.25082962  0.63617133    -0.25700
C530        C  0.56881393  0.25754972  0.65346502     0.36800
C531        C  0.60377888  0.34512303  0.63734585     0.06400
F532        F  0.54837759  0.33271972  0.60535009    -0.19500
H533        H  0.51905620  0.27221199  0.60702522     0.16200
F534        F  0.57615092  0.23314903  0.66916507    -0.23200
H535        H  0.60577122  0.29262296  0.66725019     0.18000
C536        C  0.61353181  0.36247689  0.65735795     0.26000
C537        C  0.64240518  0.38413671  0.65764991    -0.11700
C538        C  0.66136669  0.38960734  0.63792418    -0.25800
C539        C  0.64972771  0.37511591  0.61751084     0.36900
C540        C  0.62120477  0.35301430  0.61724937    -0.27400
F541        F  0.59651049  0.35669565  0.67694502    -0.19500
H542        H  0.65129042  0.39481189  0.67357053     0.16200
F543        F  0.66808408  0.37946378  0.59827494    -0.23200
H544        H  0.61465710  0.33980137  0.60166912     0.18000
C545        C  0.51532995  0.17999590  0.52521359    -0.27300
C546        C  0.53375884  0.15363681  0.51442335     0.06400
C547        C  0.55352651  0.13068728  0.52748731     0.26000
C548        C  0.55270075  0.13277954  0.55116807    -0.11700
C549        C  0.53204598  0.15765834  0.56190826    -0.25700
C550        C  0.51439090  0.18205567  0.54866070     0.36800
C551        C  0.52914851  0.14889433  0.48980750     0.06400
F552        F  0.57162556  0.10494329  0.51743685    -0.19500
H553        H  0.56645261  0.11373732  0.56105046     0.16200
F554        F  0.49516369  0.20729056  0.55839276    -0.23200
H555        H  0.50046560  0.19828033  0.51538744     0.18000
C556        C  0.49586591  0.14415918  0.48101701     0.26000
C557        C  0.49039380  0.14331085  0.45777196    -0.11700
C558        C  0.51794827  0.14697182  0.44270370    -0.25800
C559        C  0.55154535  0.15048746  0.45148041     0.36900
C560        C  0.55702303  0.15141833  0.47491790    -0.27400
F561        F  0.46850203  0.14064417  0.49500371    -0.19500
H562        H  0.46434758  0.14002182  0.45156043     0.16200
F563        F  0.57884941  0.15435865  0.43751788    -0.23200
H564        H  0.58281542  0.15525469  0.48144056     0.18000
C565        C  0.27199262  0.58051308  0.66318246    -0.27300
C566        C  0.28954285  0.59213689  0.64395993     0.06400
C567        C  0.28152095  0.57725973  0.62283562     0.26000
C568        C  0.25413791  0.55380410  0.62081522    -0.11700
C569        C  0.23448755  0.54510197  0.63976902    -0.25700
C570        C  0.24443075  0.55754728  0.66109963     0.36800
C571        C  0.31112005  0.62379016  0.64551488     0.06400
F572        F  0.29767010  0.58807257  0.60386374    -0.19500
H573        H  0.24641042  0.54486248  0.60419947     0.16200
F574        F  0.22577909  0.54952314  0.67968694    -0.23200
H575        H  0.27798086  0.59128878  0.67964195     0.18000
C576        C  0.29705928  0.65394613  0.65503924     0.26000
C577        C  0.31524494  0.68492528  0.65458648    -0.11700
C578        C  0.34790904  0.68690738  0.64461635    -0.25800
C579        C  0.36275727  0.65649763  0.63584564     0.36900
C580        C  0.34431981  0.62523065  0.63618340    -0.27400
F581        F  0.26472002  0.65403493  0.66362342    -0.19500
H582        H  0.30312292  0.70779640  0.66152694     0.16200
F583        F  0.39420891  0.65726407  0.62600927    -0.23200
H584        H  0.35564693  0.60230349  0.62877209     0.18000
C585        C  0.38010495  0.74694956  0.53349595    -0.27300
C586        C  0.36297372  0.77330543  0.52172512     0.06400
C587        C  0.34587086  0.79913416  0.53422667     0.26000
C588        C  0.34782345  0.79949424  0.55796342    -0.11700
C589        C  0.36714698  0.77439144  0.56951639    -0.25700
C590        C  0.38251974  0.74758743  0.55700526     0.36800
C591        C  0.36582282  0.77465961  0.49661740     0.06400
F592        F  0.32913191  0.82514117  0.52352446    -0.19500
H593        H  0.33578698  0.82040208  0.56721884     0.16200
F594        F  0.40052363  0.72218757  0.56748663    -0.23200
H595        H  0.39267614  0.72623196  0.52435617     0.18000
C596        C  0.39825235  0.77090321  0.48645281     0.26000
C597        C  0.40140026  0.77022845  0.46302857    -0.11700
C598        C  0.37249242  0.77365843  0.44886774    -0.25800
C599        C  0.33999689  0.77843217  0.45892300     0.36900
C600        C  0.33676801  0.77883551  0.48260976    -0.27400
F601        F  0.42723613  0.76837427  0.49921064    -0.19500
H602        H  0.42688577  0.76715224  0.45597605     0.16200
F603        F  0.31136990  0.78216401  0.44598348    -0.23200
H604        H  0.31149341  0.78172848  0.48999992     0.18000
C605        C  0.46972497  0.92061370  0.61991723    -0.27300
C606        C  0.44597963  0.94802261  0.62111534     0.06400
C607        C  0.41098154  0.94025934  0.62412932     0.26000
C608        C  0.40028074  0.90604150  0.62658566    -0.11700
C609        C  0.42407944  0.87863632  0.62612573    -0.25700
C610        C  0.45900517  0.88626590  0.62244382     0.36800
C611        C  0.45795195  0.98456651  0.62067152     0.06400
F612        F  0.38720148  0.96581454  0.62575896    -0.19500
H613        H  0.37318065  0.90110152  0.62924863     0.16200
F614        F  0.48293323  0.86076387  0.62179679    -0.23200
H615        H  0.49677375  0.92585610  0.61728449     0.18000
C616        C  0.48546180  0.99526743  0.63451503     0.26000
C617        C  0.49563901  0.02984741  0.63497664    -0.11700
C618        C  0.47834695  0.05476925  0.62201145    -0.25800
C619        C  0.45095355  0.04421712  0.60802753     0.36900
C620        C  0.44106202  0.00936686  0.60727392    -0.27400
F621        F  0.50165783  0.97258542  0.64836884    -0.19500
H622        H  0.51664566  0.03732181  0.64603180     0.16200
F623        F  0.43420086  0.06736477  0.59481076    -0.23200
H624        H  0.42012187  0.00173965  0.59622245     0.18000
C625        C  0.54748401  0.62646425  0.90452882    -0.27300
C626        C  0.56558390  0.61374435  0.88573674     0.06400
C627        C  0.55843884  0.62767779  0.86432941     0.26000
C628        C  0.53689058  0.65651347  0.86227353    -0.11700
C629        C  0.52133185  0.67117555  0.88137764    -0.25700
C630        C  0.52532130  0.65485195  0.90237151     0.36800
C631        C  0.59675849  0.59203386  0.88902205     0.06400
F632        F  0.57537369  0.61601537  0.84581354    -0.19500
H633        H  0.53450696  0.66906506  0.84602903     0.16200
F634        F  0.51121029  0.66890933  0.92122006    -0.23200
H635        H  0.55266063  0.61615941  0.92117342     0.18000
C636        C  0.62430518  0.60526127  0.90186485     0.26000
C637        C  0.65618761  0.58868912  0.90180697    -0.11700
C638        C  0.66121792  0.55817338  0.88941919    -0.25800
C639        C  0.63322402  0.54355971  0.87768479     0.36900
C640        C  0.60130361  0.56071537  0.87723799    -0.27400
F641        F  0.62113077  0.63562937  0.91321262    -0.19500
H642        H  0.67741098  0.60027463  0.91102929     0.16200
F643        F  0.63736470  0.51411926  0.86548818    -0.23200
H644        H  0.58047913  0.55019753  0.86714237     0.18000
C645        C  0.47840683  0.76834400  0.77781191    -0.27300
C646        C  0.44745735  0.78543774  0.77228792     0.06400
C647        C  0.42776198  0.79951056  0.79002737     0.26000
C648        C  0.43833128  0.79565238  0.81252508    -0.11700
C649        C  0.46924087  0.77873075  0.81790259    -0.25700
C650        C  0.48948956  0.76549679  0.80030656     0.36800
C651        C  0.43567035  0.78778292  0.74819845     0.06400
F652        F  0.39866891  0.81772424  0.78567245    -0.19500
H653        H  0.42257665  0.80651374  0.82582649     0.16200
F654        F  0.51928761  0.74861966  0.80490833    -0.23200
H655        H  0.49383898  0.75652628  0.76471959     0.18000
C656        C  0.45909270  0.79489813  0.73071619     0.26000
C657        C  0.44827559  0.79469435  0.70813901    -0.11700
C658        C  0.41374469  0.78837285  0.70233757    -0.25800
C659        C  0.38995629  0.78261062  0.71973759     0.36900
C660        C  0.40093762  0.78188576  0.74235499    -0.27400
F661        F  0.49245671  0.80251488  0.73538836    -0.19500
H662        H  0.46704580  0.79968099  0.69508164     0.16200
F663        F  0.35644402  0.77604050  0.71485845    -0.23200
H664        H  0.38231221  0.77572872  0.75526205     0.18000
C665        C  0.32842764  0.28581093  0.84675233    -0.27300
C666        C  0.31962192  0.30397285  0.86650167     0.06400
C667        C  0.33671786  0.29579702  0.88680872     0.26000
C668        C  0.35996621  0.26806372  0.88756389    -0.11700
C669        C  0.36613954  0.24806663  0.86818549    -0.25700
C670        C  0.35120101  0.25791883  0.84759927     0.36800
C671        C  0.28807815  0.32572823  0.86655834     0.06400
F672        F  0.32819189  0.31203495  0.90634746    -0.19500
H673        H  0.37070124  0.26030682  0.90367104     0.16200
F674        F  0.35666259  0.23889177  0.82864480    -0.23200
H675        H  0.31562397  0.29162696  0.83094049     0.18000
C676        C  0.28725504  0.35944300  0.87557504     0.26000
C677        C  0.25589624  0.37751184  0.87707206    -0.11700
C678        C  0.22496737  0.36208929  0.86975802    -0.25800
C679        C  0.22636092  0.32880812  0.86000304     0.36900
C680        C  0.25742612  0.31108490  0.85847995    -0.27400
F681        F  0.31663045  0.37478902  0.88293623    -0.19500
H682        H  0.25567912  0.40313007  0.88447972     0.16200
F683        F  0.19756799  0.31282534  0.85218575    -0.23200
H684        H  0.25731035  0.28512964  0.85155728     0.18000
C685        C  0.47147506  0.16503419  0.77970910    -0.27300
C686        C  0.45088303  0.14856761  0.76342465     0.06400
C687        C  0.42008317  0.13265956  0.77025662     0.26000
C688        C  0.41008167  0.13361118  0.79293562    -0.11700
C689        C  0.43069600  0.15012565  0.80926570    -0.25700
C690        C  0.46160374  0.16591399  0.80235819     0.36800
C691        C  0.46173253  0.14848657  0.73941915     0.06400
F692        F  0.40008672  0.11543381  0.75512217    -0.19500
H693        H  0.38636500  0.12100724  0.79775676     0.16200
F694        F  0.48221981  0.18264807  0.81737231    -0.23200
H695        H  0.49513901  0.17768216  0.77480476     0.18000
C696        C  0.43919593  0.15961582  0.72234330     0.26000
C697        C  0.44995565  0.16025965  0.69988853    -0.11700
C698        C  0.48348128  0.15010262  0.69388793    -0.25800
C699        C  0.50614275  0.13911848  0.71102060     0.36900
C700        C  0.49529080  0.13841700  0.73354297    -0.27400
F701        F  0.40710870  0.17100819  0.72742241    -0.19500
H702        H  0.43193955  0.16910192  0.68717459     0.16200
F703        F  0.53873765  0.12912559  0.70611866    -0.23200
H704        H  0.51311312  0.12984631  0.74645853     0.18000
C705        C  0.42550822  0.99216263  0.87313893    -0.27300
C706        C  0.45188951  0.98252079  0.88804797     0.06400
C707        C  0.47060339  0.00866437  0.89932542     0.26000
C708        C  0.46231074  0.04363260  0.89601488    -0.11700
C709        C  0.43513837  0.05304098  0.88156469    -0.25700
C710        C  0.41709570  0.02682214  0.86995664     0.36800
C711        C  0.46008290  0.94518664  0.89080933     0.06400
F712        F  0.49614501  0.00041375  0.91403154    -0.19500
H713        H  0.47648638  0.06327174  0.90521254     0.16200
F714        F  0.39144144  0.03462063  0.85521835    -0.23200
H715        H  0.41145319  0.97270340  0.86369204     0.18000
C716        C  0.43373544  0.92068483  0.89400976     0.26000
C717        C  0.44106786  0.88526990  0.89358119    -0.11700
C718        C  0.47479882  0.87346581  0.89006704    -0.25800
C719        C  0.50141900  0.89808794  0.88806812     0.36900
C720        C  0.49400825  0.93346174  0.88835074    -0.27400
F721        F  0.40076291  0.93099427  0.89734419    -0.19500
H722        H  0.42014924  0.86707068  0.89555093     0.16200
F723        F  0.53463150  0.88815325  0.88532069    -0.23200
H724        H  0.51473153  0.95169577  0.88575897     0.18000
C725        C  0.54405902  0.62112789  0.13657943    -0.27300
C726        C  0.57816051  0.61959168  0.14454656     0.06400
C727        C  0.59447515  0.65022798  0.15141007     0.26000
C728        C  0.57713804  0.68160171  0.15058169    -0.11700
C729        C  0.54305318  0.68366692  0.14266474    -0.25700
C730        C  0.52643450  0.65294289  0.13576329     0.36800
C731        C  0.59821066  0.58697776  0.14509599     0.06400
F732        F  0.62786761  0.65000223  0.15824219    -0.19500
H733        H  0.59093955  0.70457796  0.15585673     0.16200
F734        F  0.49364804  0.65367548  0.12783807    -0.23200
H735        H  0.53119551  0.59778041  0.13099294     0.18000
C736        C  0.61388635  0.57664682  0.16541818     0.26000
C737        C  0.64207737  0.55427209  0.16509880    -0.11700
C738        C  0.65454723  0.54118472  0.14461463    -0.25800
C739        C  0.63639252  0.54815765  0.12456249     0.36900
C740        C  0.60834529  0.57103961  0.12482810    -0.27400
F741        F  0.60423161  0.59113958  0.18531614    -0.19500
H742        H  0.65594667  0.54941512  0.18066924     0.16200
F743        F  0.64830863  0.53628289  0.10446709    -0.23200
H744        H  0.59678976  0.57885424  0.10898334     0.18000
C745        C  0.48340680  0.79388534  0.24126085    -0.27300
C746        C  0.44970415  0.78305836  0.24626912     0.06400
C747        C  0.42795416  0.77318600  0.22837484     0.26000
C748        C  0.43991571  0.77339532  0.20615174    -0.11700
C749        C  0.47384063  0.78344928  0.20108460    -0.25700
C750        C  0.49543412  0.79412474  0.21894017     0.36800
C751        C  0.43779720  0.78066549  0.27011969     0.06400
F752        F  0.39547468  0.76198316  0.23240658    -0.19500
H753        H  0.42251362  0.76514606  0.19286540     0.16200
F754        F  0.52821307  0.80442044  0.21495551    -0.23200
H755        H  0.50054270  0.80207017  0.25471327     0.18000
C756        C  0.45785834  0.76351928  0.28637333     0.19600
C757        C  0.44634578  0.76058270  0.30860785    -0.11700
C758        C  0.41451652  0.77455312  0.31531734    -0.25800
C759        C  0.39424334  0.79153453  0.29901831     0.36900
C760        C  0.40586832  0.79455309  0.27669294    -0.27400
F761        F  0.48831052  0.74878497  0.28066125    -0.19500
H762        H  0.46259304  0.74725850  0.32064561     0.16200
F763        F  0.36350543  0.80570176  0.30464184    -0.23200
H764        H  0.39001418  0.80810430  0.26454087     0.18000
C765        C  0.53973542  0.80099180  0.03380375    -0.27300
C766        C  0.53215390  0.76969508  0.02269764     0.06400
C767        C  0.52554231  0.74011550  0.03568179     0.26000
C768        C  0.52383034  0.74248479  0.05917548    -0.11700
C769        C  0.52947246  0.77410830  0.07020564    -0.25700
C770        C  0.53843889  0.80323523  0.05745150     0.36800
C771        C  0.52760281  0.76868136  0.99779504     0.06400
F772        F  0.51955685  0.70914904  0.02556906    -0.19500
H773        H  0.51697200  0.71976534  0.06879070     0.16200
F774        F  0.54315345  0.83431629  0.06768247    -0.23200
H775        H  0.54475194  0.82410073  0.02411237     0.18000
C776        C  0.49640966  0.75695053  0.98844973     0.26000
C777        C  0.49142991  0.75674190  0.96511972    -0.11700
C778        C  0.51727510  0.76833715  0.95042842    -0.25800
C779        C  0.54866258  0.77993473  0.95975089     0.36900
C780        C  0.55360184  0.78028948  0.98326117    -0.27400
F781        F  0.47016432  0.74677632  0.00194535    -0.19500
H782        H  0.46692716  0.74780668  0.95857649     0.16200
F783        F  0.57429024  0.79152825  0.94627296    -0.23200
H784        H  0.57775503  0.78957859  0.99014830     0.18000
C785        C  0.28599003  0.36543205  0.12003494    -0.27300
C786        C  0.28926134  0.33461380  0.13239897     0.06400
C787        C  0.26173199  0.32387059  0.14594485     0.26000
C788        C  0.23141166  0.34299508  0.14672162    -0.11700
C789        C  0.22755654  0.37338949  0.13407762    -0.25700
C790        C  0.25543187  0.38493874  0.12099598     0.36800
C791        C  0.31984766  0.31182152  0.13024797     0.06400
F792        F  0.26340393  0.29369573  0.15750476    -0.19500
H793        H  0.21038594  0.33338550  0.15687695     0.16200
F794        F  0.25251459  0.41384826  0.10825894    -0.23200
H795        H  0.30684722  0.37400016  0.10936393     0.18000
C796        C  0.32771865  0.29607896  0.10945063     0.26000
C797        C  0.35034833  0.26789657  0.10866120    -0.11700
C798        C  0.36551334  0.25521261  0.12851128    -0.25800
C799        C  0.35975097  0.27256590  0.14898134     0.36900
C800        C  0.33724971  0.30077742  0.14978955    -0.27400
F801        F  0.31085012  0.30552845  0.09034243    -0.19500
H802        H  0.35386458  0.25423529  0.09283693     0.16200
F803        F  0.37356917  0.26039683  0.16846786    -0.23200
H804        H  0.33146822  0.31247676  0.16597820     0.18000
C805        C  0.40764534  0.14659572  0.23332889    -0.27300
C806        C  0.44202416  0.15263946  0.23974374     0.06400
C807        C  0.46626254  0.16020087  0.22294061     0.26000
C808        C  0.45617577  0.16193823  0.20032396    -0.11700
C809        C  0.42175861  0.15612057  0.19384032    -0.25700
C810        C  0.39751091  0.14833667  0.21063691     0.36800
C811        C  0.45229289  0.15166845  0.26393440     0.06400
F812        F  0.49957941  0.16681674  0.22839728    -0.19500
H813        H  0.47554378  0.16784702  0.18782805     0.16200
F814        F  0.36403595  0.14260107  0.20524117    -0.23200
H815        H  0.38857585  0.14030852  0.24594103     0.18000
C816        C  0.43314012  0.16966183  0.28026528     0.26000
C817        C  0.44279756  0.16860403  0.30298236    -0.11700
C818        C  0.47196068  0.14994560  0.30996772    -0.25800
C819        C  0.49145488  0.13227023  0.29360012     0.36900
C820        C  0.48151916  0.13301377  0.27084956    -0.27400
F821        F  0.40554302  0.18905324  0.27420681    -0.19500
H822        H  0.42750570  0.18279572  0.31512808     0.16200
F823        F  0.51973525  0.11380941  0.29954395    -0.23200
H824        H  0.49651111  0.11866216  0.25862486     0.18000
C825        C  0.35449637  0.13292072  0.97523521    -0.27300
C826        C  0.37128049  0.15880528  0.98784128     0.06400
C827        C  0.38917469  0.18493677  0.97641413     0.26000
C828        C  0.39243149  0.18370381  0.95303517    -0.11700
C829        C  0.37754725  0.15674933  0.94047111    -0.25700
C830        C  0.35745726  0.13192857  0.95161523     0.36800
C831        C  0.37427290  0.15641584  0.01272617     0.06400
F832        F  0.40471117  0.21099183  0.98800141    -0.19500
H833        H  0.40751477  0.20344251  0.94474615     0.16200
F834        F  0.34292219  0.10543000  0.93993920    -0.23200
H835        H  0.34078077  0.11244411  0.98375220     0.18000
C836        C  0.34540422  0.15427472  0.02689147     0.26000
C837        C  0.34971716  0.15357815  0.05045546    -0.11700
C838        C  0.38284430  0.15497240  0.06010862    -0.25800
C839        C  0.41159451  0.15613056  0.04569504     0.36900
C840        C  0.40721217  0.15673377  0.02239733    -0.27400
F841        F  0.31317888  0.15400675  0.01800691    -0.19500
H842        H  0.32719220  0.15261234  0.06112788     0.16200
F843        F  0.44420556  0.15661793  0.05398960    -0.23200
H844        H  0.42982168  0.15758636  0.01177348     0.18000
C845        C  0.41345367  0.99732576  0.11655039    -0.27300
C846        C  0.44523691  0.98618742  0.12519620     0.06400
C847        C  0.46879146  0.01127225  0.13314774     0.26000
C848        C  0.46044895  0.04648103  0.13248997    -0.11700
C849        C  0.42826841  0.05733633  0.12442230    -0.25700
C850        C  0.40484723  0.03236782  0.11637599     0.36800
C851        C  0.45372170  0.94859940  0.12560012     0.06400
F852        F  0.49939623  0.00177963  0.14232140    -0.19500
H853        H  0.47870887  0.06519017  0.13901624     0.16200
F854        F  0.37369053  0.04184143  0.10802136    -0.23200
H855        H  0.39520243  0.97885444  0.10975019     0.18000
C856        C  0.42954232  0.92369207  0.13270833     0.26000
C857        C  0.43829815  0.88853869  0.13325418    -0.11700
C858        C  0.47143601  0.87768738  0.12722457    -0.25800
C859        C  0.49533402  0.90245098  0.11976863     0.36900
C860        C  0.48638020  0.93732880  0.11873597    -0.27400
F861        F  0.39795285  0.93338176  0.14006582    -0.19500
H862        H  0.41966267  0.86999102  0.13930864     0.16200
F863        F  0.52748691  0.89293253  0.11337705    -0.23200
H864        H  0.50516251  0.95560352  0.11254340     0.18000
loop_ 
_geom_bond_atom_site_label_1 
_geom_bond_atom_site_label_2 
_geom_bond_distance 
_geom_bond_site_symmetry_2 
_ccdc_geom_bond_type 
O1            V9   1.918       .  S
O1           C11   1.267       .  A
O2            V9   1.915       .  S
O2           C12   1.269       .  A
O3            V9   1.882       .  S
O3           C13   1.261       .  A
O4            V9   1.886       .  S
O4           C14   1.261       .  A
O5           V10   1.915       .  S
O5           C14   1.269       .  A
O6           V10   1.915       .  S
O6           C13   1.268       .  A
O7           V10   1.889       .  S
O7           C12   1.261       .  A
O8           V10   1.889       .  S
O8           C11   1.261       .  A
V9           V10   2.085       .  T
C11         C798   1.471       .  S
C12         C849   1.480       .  S
C13         C838   1.483       .  S
C14         C809   1.485       .  S
O15          V23   1.923       .  S
O15          C25   1.270       .  A
O16          V23   1.922       .  S
O16          C26   1.270       .  A
O17          V23   1.888       .  S
O17          C27   1.261       .  A
O18          V23   1.890       .  S
O18          C28   1.262       .  A
O19          V24   1.919       .  S
O19          C28   1.270       .  A
O20          V24   1.917       .  S
O20          C27   1.268       .  A
O21          V24   1.882       .  S
O21          C26   1.259       .  A
O22          V24   1.883       .  S
O22          C25   1.262       .  A
V23          V24   2.085       .  T
C25         C729   1.489       .  S
C26         C858   1.480       .  S
C27         C769   1.473       .  S
C28         C749   1.490       .  S
O29          V37   1.917       .  S
O29          C39   1.267       .  A
O30          V37   1.920       .  S
O30          C40   1.269       .  A
O31          V37   1.893       .  S
O31          C41   1.263       .  A
O32          V37   1.884       .  S
O32          C42   1.262       .  A
O33          V38   1.914       .  S
O33          C42   1.267       .  A
O34          V38   1.909       .  S
O34          C41   1.268       .  A
O35          V38   1.887       .  S
O35          C40   1.261       .  A
O36          V38   1.889       .  S
O36          C39   1.261       .  A
V37          V38   2.087       .  T
C39         C669   1.472       .  S
C40         C709   1.485       .  S
C41         C689   1.484       .  S
C42         C829   1.475       .  S
O43          V51   1.919       .  S
O43          C53   1.268       .  A
O44          V51   1.913       .  S
O44          C54   1.269       .  A
O45          V51   1.899       .  S
O45          C55   1.264       .  A
O46          V51   1.890       .  S
O46          C56   1.263       .  A
O47          V52   1.915       .  S
O47          C56   1.268       .  A
O48          V52   1.914       .  S
O48          C55   1.268       .  A
O49          V52   1.892       .  S
O49          C54   1.262       .  A
O50          V52   1.890       .  S
O50          C53   1.261       .  A
V51          V52   2.086       .  T
C53         C629   1.474       .  S
C54         C718   1.488       .  S
C55         C649   1.482       .  S
C56         C778   1.487       .  S
O57          V65   1.918       .  S
O57          C67   1.269       .  A
O58          V65   1.915       .  S
O58          C68   1.269       .  A
O59          V65   1.896       .  S
O59          C69   1.263       .  A
O60          V65   1.891       .  S
O60          C70   1.263       .  A
O61          V66   1.920       .  S
O61          C70   1.269       .  A
O62          V66   1.919       .  S
O62          C69   1.269       .  A
O63          V66   1.889       .  S
O63          C68   1.262       .  A
O64          V66   1.886       .  S
O64          C67   1.262       .  A
V65          V66   2.084       .  T
C67         C578   1.485       .  S
C68         C609   1.486       .  S
C69         C658   1.487       .  S
C70         C589   1.485       .  S
O71          V79   1.916       .  S
O71          C81   1.267       .  A
O72          V79   1.916       .  S
O72          C82   1.269       .  A
O73          V79   1.890       .  S
O73          C83   1.263       .  A
O74          V79   1.881       .  S
O74          C84   1.261       .  A
O75          V80   1.917       .  S
O75          C84   1.268       .  A
O76          V80   1.911       .  S
O76          C83   1.268       .  A
O77          V80   1.889       .  S
O77          C82   1.262       .  A
O78          V80   1.891       .  S
O78          C81   1.263       .  A
V79          V80   2.086       .  T
C81         C529   1.478       .  S
C82         C618   1.482       .  S
C83         C698   1.485       .  S
C84         C549   1.477       .  S
O85          V93   1.915       .  S
O85          C95   1.267       .  A
O86          V93   1.913       .  S
O86          C96   1.268       .  A
O87          V93   1.889       .  S
O87          C97   1.263       .  A
O88          V93   1.890       .  S
O88          C98   1.263       .  A
O89          V94   1.919       .  S
O89          C98   1.270       .  A
O90          V94   1.922       .  S
O90          C97   1.270       .  A
O91          V94   1.888       .  S
O91          C96   1.262       .  A
O92          V94   1.892       .  S
O92          C95   1.261       .  A
V93          V94   2.084       .  T
C95         C489   1.472       .  S
C96         C509   1.480       .  S
C97         C598   1.491       .  S
C98         C758   1.490       .  S
O99         V107   1.910       .  S
O99         C109   1.266       .  A
O100        V107   1.908       .  S
O100        C110   1.267       .  A
O101        V107   1.892       .  S
O101        C111   1.264       .  A
O102        V107   1.894       .  S
O102        C112   1.264       .  A
O103        V108   1.907       .  S
O103        C112   1.267       .  A
O104        V108   1.909       .  S
O104        C111   1.267       .  A
O105        V108   1.893       .  S
O105        C110   1.263       .  A
O106        V108   1.890       .  S
O106        C109   1.263       .  A
V107        V108   2.082       .  T
C109        C469   1.473       .  S
C110        C518   1.476       .  S
C111        C558   1.481       .  S
C112        C818   1.483       .  S
O113        V121   1.926       .  S
O113        C123   1.271       .  A
O114        V121   1.921       .  S
O114        C124   1.269       .  A
O115        V121   1.893       .  S
O115        C125   1.262       .  A
O116        V121   1.889       .  S
O116        C126   1.262       .  A
O117        V122   1.910       .  S
O117        C126   1.267       .  A
O118        V122   1.907       .  S
O118        C125   1.266       .  A
O119        V122   1.883       .  S
O119        C124   1.262       .  A
O120        V122   1.881       .  S
O120        C123   1.261       .  A
V121        V122   2.086       .  T
C123        C789   1.484       .  S
C124        C449   1.486       .  S
C125        C409   1.470       .  S
C126        C429   1.481       .  S
O127        V135   1.918       .  S
O127        C137   1.267       .  A
O128        V135   1.916       .  S
O128        C138   1.270       .  A
O129        V135   1.893       .  S
O129        C139   1.263       .  A
O130        V135   1.884       .  S
O130        C140   1.262       .  A
O131        V136   1.923       .  S
O131        C140   1.270       .  A
O132        V136   1.919       .  S
O132        C139   1.270       .  A
O133        V136   1.888       .  S
O133        C138   1.261       .  A
O134        V136   1.888       .  S
O134        C137   1.261       .  A
V135        V136   2.085       .  T
C137        C738   1.473       .  S
C138        C458   1.487       .  S
C139        C369   1.491       .  S
C140        C389   1.487       .  S
O141        V149   1.923       .  S
O141        C151   1.270       .  A
O142        V149   1.924       .  S
O142        C152   1.271       .  A
O143        V149   1.882       .  S
O143        C153   1.260       .  A
O144        V149   1.880       .  S
O144        C154   1.259       .  A
O145        V150   1.914       .  S
O145        C154   1.269       .  A
O146        V150   1.915       .  S
O146        C153   1.268       .  A
O147        V150   1.883       .  S
O147        C152   1.260       .  A
O148        V150   1.883       .  S
O148        C151   1.261       .  A
V149        V150   2.085       .  T
C151        C678   1.489       .  S
C152        C349   1.486       .  S
C153        C438   1.475       .  S
C154        C329   1.482       .  S
O155        V163   1.917       .  S
O155        C165   1.268       .  A
O156        V163   1.913       .  S
O156        C166   1.268       .  A
O157        V163   1.894       .  S
O157        C167   1.264       .  A
O158        V163   1.891       .  S
O158        C168   1.263       .  A
O159        V164   1.921       .  S
O159        C168   1.270       .  A
O160        V164   1.915       .  S
O160        C167   1.267       .  A
O161        V164   1.895       .  S
O161        C166   1.262       .  A
O162        V164   1.893       .  S
O162        C165   1.263       .  A
V163        V164   2.084       .  T
C165        C638   1.479       .  S
C166        C358   1.479       .  S
C167        C398   1.482       .  S
C168        C309   1.489       .  S
O169        V177   1.917       .  S
O169        C179   1.267       .  A
O170        V177   1.913       .  S
O170        C180   1.268       .  A
O171        V177   1.889       .  S
O171        C181   1.262       .  A
O172        V177   1.895       .  S
O172        C182   1.264       .  A
O173        V178   1.917       .  S
O173        C182   1.269       .  A
O174        V178   1.916       .  S
O174        C181   1.268       .  A
O175        V178   1.889       .  S
O175        C180   1.262       .  A
O176        V178   1.889       .  S
O176        C179   1.261       .  A
V177        V178   2.084       .  T
C179        C538   1.471       .  S
C180        C289   1.480       .  S
C181        C278   1.485       .  S
C182        C318   1.491       .  S
O183        V191   1.917       .  S
O183        C193   1.267       .  A
O184        V191   1.914       .  S
O184        C194   1.268       .  A
O185        V191   1.885       .  S
O185        C195   1.262       .  A
O186        V191   1.884       .  S
O186        C196   1.261       .  A
O187        V192   1.910       .  S
O187        C196   1.268       .  A
O188        V192   1.912       .  S
O188        C195   1.268       .  A
O189        V192   1.886       .  S
O189        C194   1.261       .  A
O190        V192   1.888       .  S
O190        C193   1.261       .  A
V191        V192   2.084       .  T
C193        C569   1.471       .  S
C194        C298   1.473       .  S
C195        C249   1.483       .  S
C196        C338   1.481       .  S
O197        V205   1.910       .  S
O197        C207   1.265       .  A
O198        V205   1.911       .  S
O198        C208   1.268       .  A
O199        V205   1.890       .  S
O199        C209   1.262       .  A
O200        V205   1.887       .  S
O200        C210   1.262       .  A
O201        V206   1.918       .  S
O201        C210   1.268       .  A
O202        V206   1.919       .  S
O202        C209   1.270       .  A
O203        V206   1.888       .  S
O203        C208   1.261       .  A
O204        V206   1.890       .  S
O204        C207   1.262       .  A
V205        V206   2.084       .  T
C207        C478   1.470       .  S
C208        C238   1.476       .  S
C209        C378   1.489       .  S
C210        C269   1.479       .  S
O211        V219   1.919       .  S
O211        C221   1.269       .  A
O212        V219   1.917       .  S
O212        C222   1.269       .  A
O213        V219   1.895       .  S
O213        C223   1.263       .  A
O214        V219   1.888       .  S
O214        C224   1.262       .  A
O215        V220   1.910       .  S
O215        C224   1.266       .  A
O216        V220   1.908       .  S
O216        C223   1.267       .  A
O217        V220   1.884       .  S
O217        C222   1.261       .  A
O218        V220   1.884       .  S
O218        C221   1.262       .  A
V219        V220   2.086       .  T
C221        C498   1.480       .  S
C222        C229   1.484       .  S
C223        C418   1.480       .  S
C224        C258   1.470       .  S
C225        C226   1.401       .  A
C225        C230   1.395   1_655  A
C225        H235   1.083       .  S
C226        C231   1.485       .  S
C226        C227   1.410       .  A
C227        C228   1.402   1_655  A
C227        F232   1.357       .  S
C228        C229   1.405       .  A
C228        H233   1.083       .  S
C229        C230   1.412       .  A
C230        F234   1.358       .  S
C231        C236   1.410       .  A
C231        C240   1.403       .  A
C236        C237   1.401       .  A
C236        F241   1.357       .  S
C237        C238   1.403       .  A
C237        H242   1.083       .  S
C238        C239   1.407       .  A
C239        C240   1.396       .  A
C239        F243   1.358       .  S
C240        H244   1.083       .  S
C245        C246   1.406       .  A
C245        C250   1.404       .  A
C245        H255   1.083       .  S
C246        C251   1.483       .  S
C246        C247   1.405       .  A
C247        C248   1.392       .  A
C247        F252   1.358       .  S
C248        C249   1.406       .  A
C248        H253   1.083       .  S
C249        C250   1.409       .  A
C250        F254   1.357       .  S
C251        C256   1.408       .  A
C251        C260   1.404       .  A
C256        C257   1.402       .  A
C256        F261   1.357       .  S
C257        C258   1.403       .  A
C257        H262   1.083       .  S
C258        C259   1.404       .  A
C259        C260   1.394       .  A
C259        F263   1.358       .  S
C260        H264   1.083       .  S
C265        C266   1.406       .  A
C265        C270   1.406       .  A
C265        H275   1.083       .  S
C266        C271   1.480       .  S
C266        C267   1.403       .  A
C267        C268   1.393       .  A
C267        F272   1.358       .  S
C268        C269   1.404       .  A
C268        H273   1.084       .  S
C269        C270   1.408       .  A
C270        F274   1.357       .  S
C271        C276   1.405       .  A
C271        C280   1.401       .  A
C276        C277   1.406       .  A
C276        F281   1.357       .  S
C277        C278   1.408       .  A
C277        H282   1.083       .  S
C278        C279   1.410       .  A
C279        C280   1.393       .  A
C279        F283   1.358       .  S
C280        H284   1.084       .  S
C285        C286   1.408       .  A
C285        C290   1.401       .  A
C285        H295   1.083       .  S
C286        C291   1.485       .  S
C286        C287   1.404       .  A
C287        C288   1.397       .  A
C287        F292   1.358       .  S
C288        C289   1.407       .  A
C288        H293   1.083       .  S
C289        C290   1.405       .  A
C290        F294   1.357       .  S
C291        C296   1.405       .  A
C291        C300   1.408       .  A
C296        C297   1.396   1_655  A
C296        F301   1.357       .  S
C297        C298   1.404       .  A
C297        H302   1.083       .  S
C298        C299   1.404       .  A
C299        C300   1.402   1_455  A
C299        F303   1.357       .  S
C300        H304   1.083       .  S
C305        C306   1.408       .  A
C305        C310   1.405       .  A
C305        H315   1.083       .  S
C306        C311   1.491       .  S
C306        C307   1.405       .  A
C307        C308   1.399       .  A
C307        F312   1.358       .  S
C308        C309   1.408       .  A
C308        H313   1.083       .  S
C309        C310   1.409       .  A
C310        F314   1.357       .  S
C311        C316   1.405       .  A
C311        C320   1.408       .  A
C316        C317   1.400       .  A
C316        F321   1.357       .  S
C317        C318   1.409       .  A
C317        H322   1.083       .  S
C318        C319   1.409       .  A
C319        C320   1.404       .  A
C319        F323   1.357       .  S
C320        H324   1.083       .  S
C325        C326   1.399       .  A
C325        C330   1.393       .  A
C325        H335   1.083       .  S
C326        C331   1.480       .  S
C326        C327   1.408       .  A
C327        C328   1.401       .  A
C327        F332   1.357       .  S
C328        C329   1.405       .  A
C328        H333   1.083       .  S
C329        C330   1.412       .  A
C330        F334   1.358       .  S
C331        C336   1.408       .  A
C331        C340   1.400       .  A
C336        C337   1.399       .  A
C336        F341   1.357       .  S
C337        C338   1.405       .  A
C337        H342   1.083       .  S
C338        C339   1.412       .  A
C339        C340   1.394       .  A
C339        F343   1.358       .  S
C340        H344   1.083       .  S
C345        C346   1.410       .  A
C345        C350   1.406   1_655  A
C345        H355   1.083       .  S
C346        C351   1.494       .  S
C346        C347   1.406       .  A
C347        C348   1.395   1_655  A
C347        F352   1.358       .  S
C348        C349   1.407       .  A
C348        H353   1.083       .  S
C349        C350   1.407       .  A
C350        F354   1.357       .  S
C351        C356   1.408       .  A
C351        C360   1.410       .  A
C356        C357   1.401       .  A
C356        F361   1.357       .  S
C357        C358   1.405       .  A
C357        H362   1.084       .  S
C358        C359   1.404       .  A
C359        C360   1.401       .  A
C359        F363   1.357       .  S
C360        H364   1.083       .  S
C365        C366   1.407       .  A
C365        C370   1.404       .  A
C365        H375   1.083       .  S
C366        C371   1.489       .  S
C366        C367   1.404       .  A
C367        C368   1.399       .  A
C367        F372   1.358       .  S
C368        C369   1.410       .  A
C368        H373   1.083       .  S
C369        C370   1.409       .  A
C370        F374   1.357       .  S
C371        C376   1.410       .  A
C371        C380   1.401       .  A
C376        C377   1.405       .  A
C376        F381   1.357       .  S
C377        C378   1.407       .  A
C377        H382   1.083       .  S
C378        C379   1.412       .  A
C379        C380   1.398       .  A
C379        F383   1.357       .  S
C380        H384   1.083       .  S
C385        C386   1.408       .  A
C385        C390   1.409       .  A
C385        H395   1.083       .  S
C386        C391   1.488       .  S
C386        C387   1.404       .  A
C387        C388   1.393       .  A
C387        F392   1.358       .  S
C388        C389   1.406       .  A
C388        H393   1.083       .  S
C389        C390   1.410       .  A
C390        F394   1.357       .  S
C391        C396   1.408   1_554  A
C391        C400   1.404   1_554  A
C396        C397   1.407       .  A
C396        F401   1.357       .  S
C397        C398   1.407       .  A
C397        H402   1.083       .  S
C398        C399   1.406       .  A
C399        C400   1.395       .  A
C399        F403   1.358       .  S
C400        H404   1.084   1_556  S
C405        C406   1.410       .  A
C405        C410   1.401       .  A
C405        H415   1.083       .  S
C406        C411   1.492       .  S
C406        C407   1.410       .  A
C407        C408   1.397       .  A
C407        F412   1.357       .  S
C408        C409   1.401       .  A
C408        H413   1.084       .  S
C409        C410   1.402       .  A
C410        F414   1.357       .  S
C411        C416   1.409       .  A
C411        C420   1.408       .  A
C416        C417   1.399       .  A
C416        F421   1.357       .  S
C417        C418   1.405       .  A
C417        H422   1.083       .  S
C418        C419   1.405       .  A
C419        C420   1.399       .  A
C419        F423   1.357       .  S
C420        H424   1.083       .  S
C425        C426   1.402       .  A
C425        C430   1.394       .  A
C425        H435   1.083       .  S
C426        C431   1.481   1_554  S
C426        C427   1.405       .  A
C427        C428   1.403       .  A
C427        F432   1.357       .  S
C428        C429   1.407       .  A
C428        H433   1.083       .  S
C429        C430   1.409       .  A
C430        F434   1.358       .  S
C431        C436   1.408       .  A
C431        C440   1.402       .  A
C436        C437   1.403       .  A
C436        F441   1.357       .  S
C437        C438   1.404       .  A
C437        H442   1.083       .  S
C438        C439   1.407       .  A
C439        C440   1.393       .  A
C439        F443   1.358       .  S
C440        H444   1.084       .  S
C445        C446   1.410       .  A
C445        C450   1.407   1_655  A
C445        H455   1.083       .  S
C446        C451   1.491       .  S
C446        C447   1.405       .  A
C447        C448   1.392   1_655  A
C447        F452   1.358       .  S
C448        C449   1.406       .  A
C448        H453   1.083       .  S
C449        C450   1.408       .  A
C450        F454   1.357       .  S
C451        C456   1.406       .  A
C451        C460   1.409       .  A
C456        C457   1.400       .  A
C456        F461   1.357       .  S
C457        C458   1.410       .  A
C457        H462   1.083       .  S
C458        C459   1.406       .  A
C459        C460   1.400       .  A
C459        F463   1.357       .  S
C460        H464   1.083       .  S
C465        C466   1.405       .  A
C465        C470   1.402       .  A
C465        H475   1.083       .  S
C466        C471   1.475       .  S
C466        C467   1.403       .  A
C467        C468   1.394       .  A
C467        F472   1.358       .  S
C468        C469   1.403       .  A
C468        H473   1.084       .  S
C469        C470   1.406       .  A
C470        F474   1.357       .  S
C471        C476   1.407       .  A
C471        C480   1.401       .  A
C476        C477   1.403       .  A
C476        F481   1.357       .  S
C477        C478   1.403       .  A
C477        H482   1.083       .  S
C478        C479   1.404       .  A
C479        C480   1.393       .  A
C479        F483   1.358       .  S
C480        H484   1.084       .  S
C485        C486   1.407       .  A
C485        C490   1.400       .  A
C485        H495   1.083       .  S
C486        C491   1.491       .  S
C486        C487   1.410       .  A
C487        C488   1.402       .  A
C487        F492   1.357       .  S
C488        C489   1.402       .  A
C488        H493   1.083       .  S
C489        C490   1.403       .  A
C490        F494   1.358       .  S
C491        C496   1.408       .  A
C491        C500   1.409       .  A
C496        C497   1.394       .  A
C496        F501   1.358       .  S
C497        C498   1.403       .  A
C497        H502   1.084       .  S
C498        C499   1.407       .  A
C499        C500   1.406       .  A
C499        F503   1.357       .  S
C500        H504   1.083       .  S
C505        C506   1.403       .  A
C505        C510   1.396       .  A
C505        H515   1.083       .  S
C506        C511   1.488       .  S
C506        C507   1.410       .  A
C507        C508   1.402       .  A
C507        F512   1.357       .  S
C508        C509   1.404       .  A
C508        H513   1.083       .  S
C509        C510   1.408       .  A
C510        F514   1.358       .  S
C511        C516   1.411   1_565  A
C511        C520   1.404       .  A
C516        C517   1.399       .  A
C516        F521   1.357   1_545  S
C517        C518   1.402       .  A
C517        H522   1.083       .  S
C518        C519   1.407       .  A
C519        C520   1.398   1_545  A
C519        F523   1.358       .  S
C520        H524   1.083       .  S
C525        C526   1.406       .  A
C525        C530   1.395       .  A
C525        H535   1.083       .  S
C526        C531   1.492       .  S
C526        C527   1.411       .  A
C527        C528   1.406       .  A
C527        F532   1.357       .  S
C528        C529   1.405       .  A
C528        H533   1.083       .  S
C529        C530   1.405       .  A
C530        F534   1.358       .  S
C531        C536   1.411       .  A
C531        C540   1.407       .  A
C536        C537   1.401       .  A
C536        F541   1.357       .  S
C537        C538   1.401       .  A
C537        H542   1.083       .  S
C538        C539   1.404       .  A
C539        C540   1.401       .  A
C539        F543   1.358       .  S
C540        H544   1.083       .  S
C545        C546   1.401       .  A
C545        C550   1.392       .  A
C545        H555   1.084       .  S
C546        C551   1.479       .  S
C546        C547   1.407       .  A
C547        C548   1.405       .  A
C547        F552   1.357       .  S
C548        C549   1.406       .  A
C548        H553   1.083       .  S
C549        C550   1.407       .  A
C550        F554   1.358       .  S
C551        C556   1.405       .  A
C551        C560   1.404       .  A
C556        C557   1.393       .  A
C556        F561   1.358       .  S
C557        C558   1.405       .  A
C557        H562   1.083       .  S
C558        C559   1.410       .  A
C559        C560   1.404       .  A
C559        F563   1.357       .  S
C560        H564   1.083       .  S
C565        C566   1.405       .  A
C565        C570   1.397       .  A
C565        H575   1.083       .  S
C566        C571   1.487       .  S
C566        C567   1.409       .  A
C567        C568   1.404       .  A
C567        F572   1.357       .  S
C568        C569   1.403       .  A
C568        H573   1.083       .  S
C569        C570   1.403       .  A
C570        F574   1.358       .  S
C571        C576   1.406       .  A
C571        C580   1.407       .  A
C576        C577   1.393       .  A
C576        F581   1.358       .  S
C577        C578   1.405       .  A
C577        H582   1.083       .  S
C578        C579   1.410       .  A
C579        C580   1.407       .  A
C579        F583   1.357       .  S
C580        H584   1.083       .  S
C585        C586   1.405       .  A
C585        C590   1.396       .  A
C585        H595   1.083       .  S
C586        C591   1.493       .  S
C586        C587   1.410       .  A
C587        C588   1.408       .  A
C587        F592   1.357       .  S
C588        C589   1.407       .  A
C588        H593   1.083       .  S
C589        C590   1.407       .  A
C590        F594   1.358       .  S
C591        C596   1.407       .  A
C591        C600   1.409       .  A
C596        C597   1.394       .  A
C596        F601   1.358       .  S
C597        C598   1.406       .  A
C597        H602   1.083       .  S
C598        C599   1.411       .  A
C599        C600   1.409       .  A
C599        F603   1.357       .  S
C600        H604   1.083       .  S
C605        C606   1.408       .  A
C605        C610   1.402       .  A
C605        H615   1.083       .  S
C606        C611   1.490       .  S
C606        C607   1.406       .  A
C607        C608   1.397       .  A
C607        F612   1.358       .  S
C608        C609   1.408       .  A
C608        H613   1.083       .  S
C609        C610   1.408       .  A
C610        F614   1.357       .  S
C611        C616   1.406       .  A
C611        C620   1.409   1_565  A
C616        C617   1.396   1_565  A
C616        F621   1.358       .  S
C617        C618   1.405       .  A
C617        H622   1.083       .  S
C618        C619   1.406       .  A
C619        C620   1.404       .  A
C619        F623   1.357       .  S
C620        H624   1.083       .  S
C625        C626   1.407       .  A
C625        C630   1.402       .  A
C625        H635   1.083       .  S
C626        C631   1.487       .  S
C626        C627   1.407       .  A
C627        C628   1.401       .  A
C627        F632   1.357       .  S
C628        C629   1.403       .  A
C628        H633   1.083       .  S
C629        C630   1.405       .  A
C630        F634   1.358       .  S
C631        C636   1.406       .  A
C631        C640   1.408       .  A
C636        C637   1.396       .  A
C636        F641   1.358       .  S
C637        C638   1.402       .  A
C637        H642   1.084       .  S
C638        C639   1.407       .  A
C639        C640   1.408       .  A
C639        F643   1.357       .  S
C640        H644   1.083       .  S
C645        C646   1.411       .  A
C645        C650   1.404       .  A
C645        H655   1.082       .  S
C646        C651   1.500       .  S
C646        C647   1.410       .  A
C647        C648   1.402       .  A
C647        F652   1.357       .  S
C648        C649   1.405       .  A
C648        H653   1.083       .  S
C649        C650   1.404       .  A
C650        F654   1.357       .  S
C651        C656   1.410       .  A
C651        C660   1.411       .  A
C656        C657   1.400       .  A
C656        F661   1.357       .  S
C657        C658   1.406       .  A
C657        H662   1.083       .  S
C658        C659   1.406       .  A
C659        C660   1.405       .  A
C659        F663   1.357       .  S
C660        H664   1.082       .  S
C665        C666   1.406       .  A
C665        C670   1.397       .  A
C665        H675   1.083       .  S
C666        C671   1.488       .  S
C666        C667   1.409       .  A
C667        C668   1.404       .  A
C667        F672   1.357       .  S
C668        C669   1.403       .  A
C668        H673   1.083       .  S
C669        C670   1.403       .  A
C670        F674   1.358       .  S
C671        C676   1.409       .  A
C671        C680   1.401       .  A
C676        C677   1.408       .  A
C676        F681   1.357       .  S
C677        C678   1.408       .  A
C677        H682   1.083       .  S
C678        C679   1.411       .  A
C679        C680   1.392       .  A
C679        F683   1.358       .  S
C680        H684   1.084       .  S
C685        C686   1.402       .  A
C685        C690   1.397       .  A
C685        H695   1.083       .  S
C686        C691   1.485       .  S
C686        C687   1.408       .  A
C687        C688   1.400       .  A
C687        F692   1.357       .  S
C688        C689   1.406       .  A
C688        H693   1.083       .  S
C689        C690   1.411       .  A
C690        F694   1.357       .  S
C691        C696   1.405       .  A
C691        C700   1.406       .  A
C696        C697   1.396       .  A
C696        F701   1.358       .  S
C697        C698   1.408       .  A
C697        H702   1.083       .  S
C698        C699   1.408       .  A
C699        C700   1.401       .  A
C699        F703   1.357       .  S
C700        H704   1.083       .  S
C705        C706   1.402       .  A
C705        C710   1.395   1_565  A
C705        H715   1.083       .  S
C706        C711   1.490       .  S
C706        C707   1.411   1_565  A
C707        C708   1.406       .  A
C707        F712   1.357       .  S
C708        C709   1.406       .  A
C708        H713   1.083       .  S
C709        C710   1.409       .  A
C710        F714   1.358       .  S
C711        C716   1.410       .  A
C711        C720   1.403       .  A
C716        C717   1.401       .  A
C716        F721   1.357       .  S
C717        C718   1.405       .  A
C717        H722   1.083       .  S
C718        C719   1.413       .  A
C719        C720   1.400       .  A
C719        F723   1.357       .  S
C720        H724   1.083       .  S
C725        C726   1.407       .  A
C725        C730   1.410       .  A
C725        H735   1.083       .  S
C726        C731   1.484       .  S
C726        C727   1.403       .  A
C727        C728   1.390       .  A
C727        F732   1.358       .  S
C728        C729   1.406       .  A
C728        H733   1.083       .  S
C729        C730   1.412       .  A
C730        F734   1.357       .  S
C731        C736   1.407       .  A
C731        C740   1.405       .  A
C736        C737   1.397       .  A
C736        F741   1.358       .  S
C737        C738   1.401       .  A
C737        H742   1.084       .  S
C738        C739   1.406       .  A
C739        C740   1.405       .  A
C739        F743   1.358       .  S
C740        H744   1.083       .  S
C745        C746   1.409       .  A
C745        C750   1.404       .  A
C745        H755   1.083       .  S
C746        C751   1.492       .  S
C746        C747   1.405       .  A
C747        C748   1.398       .  A
C747        F752   1.357       .  S
C748        C749   1.409       .  A
C748        H753   1.083       .  S
C749        C750   1.408       .  A
C750        F754   1.357       .  S
C751        C756   1.405       .  A
C751        C760   1.408       .  A
C756        C757   1.398       .  A
C756        F761   1.358       .  S
C757        C758   1.408       .  A
C757        H762   1.083       .  S
C758        C759   1.409       .  A
C759        C760   1.405       .  A
C759        F763   1.357       .  S
C760        H764   1.083       .  S
C765        C766   1.407       .  A
C765        C770   1.404       .  A
C765        H775   1.083       .  S
C766        C771   1.485   1_554  S
C766        C767   1.406       .  A
C767        C768   1.396       .  A
C767        F772   1.358       .  S
C768        C769   1.402       .  A
C768        H773   1.084       .  S
C769        C770   1.405       .  A
C770        F774   1.357       .  S
C771        C776   1.406       .  A
C771        C780   1.405       .  A
C776        C777   1.395       .  A
C776        F781   1.358   1_556  S
C777        C778   1.407       .  A
C777        H782   1.083       .  S
C778        C779   1.410       .  A
C779        C780   1.405       .  A
C779        F783   1.357       .  S
C780        H784   1.083       .  S
C785        C786   1.408       .  A
C785        C790   1.409       .  A
C785        H795   1.083       .  S
C786        C791   1.486       .  S
C786        C787   1.404       .  A
C787        C788   1.393       .  A
C787        F792   1.358       .  S
C788        C789   1.405       .  A
C788        H793   1.084       .  S
C789        C790   1.409       .  A
C790        F794   1.357       .  S
C791        C796   1.407       .  A
C791        C800   1.407       .  A
C796        C797   1.402       .  A
C796        F801   1.357       .  S
C797        C798   1.404       .  A
C797        H802   1.084       .  S
C798        C799   1.403       .  A
C799        C800   1.400       .  A
C799        F803   1.357       .  S
C800        H804   1.083       .  S
C805        C806   1.407       .  A
C805        C810   1.401       .  A
C805        H815   1.083       .  S
C806        C811   1.487       .  S
C806        C807   1.405       .  A
C807        C808   1.396       .  A
C807        F812   1.358       .  S
C808        C809   1.408       .  A
C808        H813   1.083       .  S
C809        C810   1.407       .  A
C810        F814   1.357       .  S
C811        C816   1.406       .  A
C811        C820   1.407       .  A
C816        C817   1.396       .  A
C816        F821   1.357       .  S
C817        C818   1.406       .  A
C817        H822   1.083       .  S
C818        C819   1.408       .  A
C819        C820   1.401       .  A
C819        F823   1.357       .  S
C820        H824   1.083       .  S
C825        C826   1.406       .  A
C825        C830   1.405       .  A
C825        H835   1.083       .  S
C826        C831   1.482   1_556  S
C826        C827   1.405       .  A
C827        C828   1.392       .  A
C827        F832   1.358       .  S
C828        C829   1.403       .  A
C828        H833   1.084       .  S
C829        C830   1.407       .  A
C830        F834   1.357       .  S
C831        C836   1.407       .  A
C831        C840   1.401       .  A
C836        C837   1.406       .  A
C836        F841   1.357       .  S
C837        C838   1.408       .  A
C837        H842   1.083       .  S
C838        C839   1.410       .  A
C839        C840   1.390       .  A
C839        F843   1.358       .  S
C840        H844   1.084       .  S
C845        C846   1.404       .  A
C845        C850   1.397   1_565  A
C845        H855   1.083       .  S
C846        C851   1.492       .  S
C846        C847   1.413   1_565  A
C847        C848   1.402       .  A
C847        F852   1.357       .  S
C848        C849   1.402       .  A
C848        H853   1.083       .  S
C849        C850   1.408       .  A
C850        F854   1.358       .  S
C851        C856   1.413       .  A
C851        C860   1.404       .  A
C856        C857   1.403       .  A
C856        F861   1.357       .  S
C857        C858   1.402       .  A
C857        H862   1.083       .  S
C858        C859   1.409       .  A
C859        C860   1.396       .  A
C859        F863   1.358       .  S
C860        H864   1.083       .  S
