geometry optimzed in LAMMPS
_audit_creation_date              2020-12-01 
_audit_creation_method            'lammps2cif' 
_symmetry_space_group_name_H-M    'P1' 
_symmetry_Int_Tables_number       1 
_symmetry_cell_setting            triclinic 
loop_ 
_symmetry_equiv_pos_as_xyz 
  x,y,z 
_cell_length_a                    28.49911478 
_cell_length_b                    28.574787406765676 
_cell_length_c                    43.25431018191973 
_cell_angle_alpha                 89.91038429372968 
_cell_angle_beta                  89.83037306068952 
_cell_angle_gamma                 90.1155671169445 
loop_ 
_atom_site_label 
_atom_site_type_symbol 
_atom_site_fract_x 
_atom_site_fract_y 
_atom_site_fract_z 
_atom_site_charge 
C1          C  0.85824031  0.70518781  0.33569176     0.02800
C2          C  0.81529772  0.68785914  0.32500360    -0.13300
C3          C  0.79708213  0.64562615  0.33617468     0.00300
C4          C  0.82275045  0.61987202  0.35808074    -0.11800
C5          C  0.86765301  0.63497613  0.36765226     0.02800
C6          C  0.88474634  0.67815753  0.35641313    -0.11300
H7          H  0.79616946  0.70708332  0.30748442     0.08400
H8          H  0.80793847  0.58777363  0.36721037     0.05900
H9          H  0.91900587  0.69063686  0.36342014     0.05800
C10         C  0.73617697  0.81838780  0.08325588     0.02800
C11         C  0.70982268  0.84810556  0.06401509    -0.13300
C12         C  0.66859507  0.83207437  0.04955943     0.00300
C13         C  0.65344003  0.78591480  0.05537456    -0.11800
C14         C  0.67847139  0.75632618  0.07538737     0.02800
C15         C  0.72046872  0.77249225  0.08842452    -0.11300
H16         H  0.72064695  0.88421003  0.06116935     0.08400
H17         H  0.62116710  0.77334346  0.04509914     0.05900
H18         H  0.73987011  0.75004952  0.10397377     0.05800
C19         C  0.34848670  0.75639950  0.35428853     0.02800
C20         C  0.37508548  0.78550865  0.37381953    -0.13300
C21         C  0.36067957  0.83152757  0.38050679     0.00300
C22         C  0.31841558  0.84790207  0.36779652    -0.11800
C23         C  0.29111201  0.81926800  0.34845641     0.02800
C24         C  0.30627295  0.77359065  0.34193343    -0.11300
H25         H  0.40796731  0.77275290  0.38307651     0.08400
H26         H  0.30778855  0.88379885  0.37165677     0.05900
H27         H  0.28663682  0.75250618  0.32565878     0.05800
C28         C  0.86196024  0.27643635  0.09672191     0.02800
C29         C  0.81779906  0.29131445  0.10659674    -0.13300
C30         C  0.79710002  0.33108593  0.09376439     0.00300
C31         C  0.82103131  0.35617467  0.07065164    -0.11800
C32         C  0.86606023  0.34226658  0.06071981     0.02800
C33         C  0.88672861  0.30256750  0.07449660    -0.11300
H34         H  0.79958227  0.27187595  0.12454635     0.08400
H35         H  0.80454175  0.38670820  0.06056264     0.05900
H36         H  0.92175192  0.29176776  0.06791770     0.05800
C37         C  0.12944619  0.89321838  0.28333756     0.42200
N38         N  0.10095617  0.94126030  0.24998210     0.01000
C39         C  0.89437950  0.06895360  0.25443831    -0.06800
H40         H  0.87434195  0.88948536  0.23704775     0.06500
C41         C  0.94723150  0.91154793  0.13407595    -0.07200
Co42       Co  0.01383954  0.98957598  0.27130829     0.74200
N43         N  0.93129468  0.93707706  0.24734304    -0.26400
Co44       Co  0.92994798  0.99006917  0.21337472     0.74100
C45         C  0.90084905  0.89453941  0.14416045     0.42300
N46         N  0.06640880  0.93620854  0.15989973     0.00700
N47         N  0.92934025  0.94103409  0.17845018     0.00800
N48         N  0.94590977  0.06721896  0.29394982    -0.47200
H49         H  0.06757169  0.90654408  0.31678943     0.06500
N50         N  0.96402200  0.93674282  0.26902233     0.01100
N51         N  0.93387118  0.04318705  0.17943968     0.00800
C52         C  0.92490349  0.10549182  0.15263802     0.42400
N53         N  0.09926847  0.93685733  0.18147205    -0.25800
C54         C  0.06583618  0.08065425  0.28762282    -0.06700
N55         N  0.13716607  0.91400727  0.25586641    -0.46900
N56         N  0.90715015  0.08100068  0.17680224    -0.47100
C57         C  0.10550781  0.10650079  0.27538263     0.42200
N58         N  0.95892574  0.03867164  0.27120784     0.01000
N59         N  0.10228350  0.03860539  0.17957315    -0.25800
N60         N  0.06926446  0.94098321  0.27218799    -0.26300
N61         N  0.07178659  0.03787457  0.15678584     0.00700
H62         H  0.16903752  0.07219435  0.18556130     0.06600
H63         H  0.98767101  0.08866315  0.12128659     0.06600
N64         N  0.92870070  0.03875930  0.24827681    -0.26400
N65         N  0.96156862  0.94067457  0.15661381    -0.26000
N66         N  0.09705003  0.04378047  0.24884978     0.01000
C67         C  0.92410348  0.87496435  0.27784031     0.42400
C68         C  0.12621159  0.89868617  0.17793383    -0.07200
N69         N  0.96751078  0.04200850  0.15829023    -0.26000
H70         H  0.96538551  0.90619053  0.11240920     0.06600
N71         N  0.96107963  0.90014092  0.28767539    -0.47200
H72         H  0.15550074  0.88885390  0.19237305     0.06600
C73         C  0.12531846  0.08625314  0.14196522     0.42300
C74         C  0.08411193  0.91138006  0.29447454    -0.06700
Co75       Co  0.10078025  0.99032635  0.21502588     0.73800
N76         N  0.06867759  0.89902943  0.14180837    -0.46900
C77         C  0.90590802  0.08854688  0.28448202     0.42500
N78         N  0.12374104  0.08177178  0.25149799    -0.46900
Co79       Co  0.01687608  0.98901309  0.15727180     0.73900
C80         C  0.96445664  0.07984515  0.14024749    -0.07200
C81         C  0.90383202  0.89928675  0.25133495    -0.06800
N82         N  0.06322034  0.04259751  0.26987467    -0.26300
N83         N  0.89277490  0.91445490  0.17187363    -0.47100
H84         H  0.86276859  0.07282188  0.24092185     0.06600
C85         C  0.13703487  0.06810339  0.17246045    -0.07200
Cl86       Cl  0.01536473  0.98971042  0.21425016    -0.50200
C87         C  0.10539880  0.87379639  0.15184864     0.42300
H88         H  0.04233305  0.08943938  0.30639868     0.06500
N89         N  0.08486721  0.06508574  0.13330866    -0.46900
C90         C  0.22497054  0.64167412  0.09588301     0.02800
C91         C  0.20668966  0.68390510  0.10659163    -0.13300
C92         C  0.16449966  0.70150008  0.09511812     0.00300
C93         C  0.13882518  0.67503878  0.07357548    -0.11800
C94         C  0.15705218  0.63266897  0.06183900     0.02800
C95         C  0.20044600  0.61640088  0.07326505    -0.11300
H96         H  0.22558755  0.70338107  0.12410864     0.08400
H97         H  0.10489758  0.68752096  0.06601997     0.05900
H98         H  0.21488626  0.58368894  0.06497659     0.05800
C99         C  0.74876967  0.16177192  0.35438575     0.02800
C100        C  0.73167071  0.20700031  0.34822977    -0.13300
C101        C  0.68620262  0.22003382  0.35680863     0.00300
C102        C  0.65977851  0.19001372  0.37589613    -0.11800
C103        C  0.67605833  0.14472647  0.38328827     0.02800
C104        C  0.71999993  0.13048154  0.37128734    -0.11300
H105        H  0.75223639  0.23096305  0.33422955     0.08400
H106        H  0.62523644  0.20109638  0.38334856     0.05900
H107        H  0.73077743  0.09441526  0.37391807     0.05800
C108        C  0.15522696  0.34560627  0.36633594     0.02800
C109        C  0.19616307  0.36563137  0.35358074    -0.13300
C110        C  0.22269262  0.34128478  0.33160386     0.00300
C111        C  0.20756158  0.29769995  0.32116893    -0.11800
C112        C  0.16763276  0.27658239  0.33375361     0.02800
C113        C  0.14211727  0.30007443  0.35691306    -0.11300
H114        H  0.20723462  0.40044712  0.36029500     0.08400
H115        H  0.22720128  0.28000565  0.30314700     0.05900
H116        H  0.11186160  0.28307906  0.36716619     0.05800
C117        C  0.35684144  0.14626627  0.04635816     0.02800
C118        C  0.31056864  0.13176761  0.05405091    -0.13300
C119        C  0.27947332  0.16213115  0.06971442     0.00300
C120        C  0.29441703  0.20803953  0.07568884    -0.11800
C121        C  0.34131315  0.22123506  0.07183733     0.02800
C122        C  0.37244518  0.19014172  0.05734164    -0.11300
H123        H  0.29935433  0.09651193  0.04886122     0.08400
H124        H  0.27058487  0.23239415  0.08675364     0.05900
H125        H  0.40917309  0.19954051  0.05555798     0.05800
C126        C  0.62931286  0.57673346  0.27746140     0.42200
N127        N  0.56670025  0.56685743  0.25095033     0.01000
C128        C  0.42065490  0.37662956  0.24999175    -0.06800
H129        H  0.59446618  0.33021601  0.23869780     0.06500
C130        C  0.60065156  0.43752365  0.13864946    -0.07200
Co131      Co  0.51524112  0.48147633  0.27189365     0.74200
N132        N  0.56282721  0.39738240  0.24639169    -0.26400
Co133      Co  0.51250428  0.40067767  0.21208784     0.74100
C134        C  0.62560149  0.39636882  0.14929132     0.42300
N135        N  0.55955788  0.54454704  0.15895694     0.00700
N136        N  0.56454208  0.40543284  0.17750670     0.00800
N137        N  0.42657139  0.42949115  0.28883115    -0.47200
H138        H  0.61554650  0.51108653  0.30678135     0.06500
N139        N  0.56432635  0.42720816  0.26953753     0.01100
N140        N  0.46223580  0.40218573  0.17764814     0.00800
C141        C  0.41474768  0.37643498  0.14300879     0.42400
N142        N  0.55989315  0.57464558  0.18198732    -0.25800
C143        C  0.43844712  0.54855226  0.29906673    -0.06700
N144        N  0.60333384  0.59522974  0.25429893    -0.46900
N145        N  0.43506975  0.36635970  0.17031791    -0.47100
C146        C  0.41911448  0.59419940  0.29028571     0.42200
N147        N  0.46272534  0.43187795  0.26975859     0.01000
N148        N  0.45796015  0.57045002  0.18480010    -0.25800
N149        N  0.56747971  0.53166807  0.27086290    -0.26300
N150        N  0.45816948  0.53954282  0.16203600     0.00700
H151        H  0.40973168  0.62586096  0.19679108     0.06600
H152        H  0.42882349  0.44049763  0.11179670     0.06600
N153        N  0.46046679  0.40142727  0.24677975    -0.26400
N154        N  0.56353679  0.44040657  0.15744143    -0.26000
N155        N  0.46398552  0.56862257  0.25390103     0.01000
C156        C  0.61135750  0.37166368  0.28273312     0.42400
C157        C  0.58786930  0.61056147  0.17457697    -0.07200
N158        N  0.46224650  0.43527561  0.15643731    -0.26000
H159        H  0.60921246  0.46150506  0.12009751     0.06600
N160        N  0.59211366  0.41255644  0.29219133    -0.47200
H161        H  0.59115942  0.64263012  0.18765427     0.06600
C162        C  0.39578574  0.57908201  0.15426110     0.42300
C163        C  0.60568140  0.53496992  0.28851490    -0.06700
Co164      Co  0.51213941  0.57104986  0.21796986     0.73800
N165        N  0.58500291  0.55915404  0.13508419    -0.46900
C166        C  0.39852901  0.39563470  0.27785780     0.42500
N167        N  0.43712060  0.60415984  0.26216645    -0.46900
Co168      Co  0.51083434  0.49006945  0.15821447     0.73900
C169        C  0.43324413  0.42219589  0.13349736    -0.07200
C170        C  0.59176205  0.36179966  0.25233414    -0.06800
N171        N  0.46600373  0.53570366  0.27519044    -0.26300
N172        N  0.60142806  0.37783617  0.17334836    -0.47100
H173        H  0.40824844  0.34974689  0.23445108     0.06600
C174        C  0.41959425  0.59731256  0.18175074    -0.07200
Cl175      Cl  0.51267582  0.48582538  0.21503038    -0.50200
C176        C  0.60453470  0.60033462  0.14345021     0.42300
H177        H  0.43629578  0.53073578  0.32110101     0.06500
N178        N  0.42195605  0.54370000  0.14323176    -0.46900
C179        C  0.48922318  0.95330899  0.44807521     0.02000
C180        C  0.48953508  0.95209363  0.48096269     0.01900
C181        C  0.52005097  0.98215749  0.49688775    -0.18600
C182        C  0.55141910  0.01233407  0.48160253     0.02000
C183        C  0.55101812  0.01436749  0.44878565     0.01900
C184        C  0.51974810  0.98480930  0.43264077    -0.18600
H185        H  0.51908035  0.98646821  0.40763209     0.04000
H186        H  0.51955273  0.98191464  0.52195342     0.04000
C187        C  0.97972448  0.45858628  0.97927599     0.02000
C188        C  0.98187909  0.45704164  0.94650432     0.01900
C189        C  0.01433616  0.48626845  0.93105485    -0.18600
C190        C  0.04616873  0.51501096  0.94727497     0.02000
C191        C  0.04463489  0.51535638  0.98011612     0.01900
C192        C  0.01094365  0.48773362  0.99530899    -0.18600
H193        H  0.00927075  0.48858183  0.02034077     0.04000
H194        H  0.01526410  0.48617606  0.90599893     0.04000
C195        C  0.98661032  0.52414539  0.44960699     0.02000
C196        C  0.98220915  0.52085833  0.48230213     0.01900
C197        C  0.01027457  0.48788095  0.49827271    -0.18600
C198        C  0.04295594  0.45895135  0.48274326     0.02000
C199        C  0.04677450  0.46268213  0.45011738     0.01900
C200        C  0.01913116  0.49544866  0.43436917    -0.18600
H201        H  0.02226382  0.49790442  0.40940948     0.04000
H202        H  0.00620247  0.48424587  0.52307472     0.04000
C203        C  0.54723632  0.96009310  0.94787567     0.02000
C204        C  0.54708254  0.95908778  0.98067211     0.01900
C205        C  0.51683832  0.98982757  0.99687701    -0.18600
C206        C  0.48599017  0.02039852  0.98126630     0.02000
C207        C  0.48637932  0.02081864  0.94848298     0.01900
C208        C  0.51641499  0.99037763  0.93245578    -0.18600
H209        H  0.51585132  0.99032170  0.90738535     0.04000
H210        H  0.51735552  0.99000096  0.02192337     0.04000
C211        C  0.71937100  0.83393349  0.82633199     0.02800
C212        C  0.69720072  0.79532301  0.81312488    -0.13300
C213        C  0.65221018  0.78185456  0.82246616     0.00300
C214        C  0.62928848  0.80710202  0.84599344    -0.11800
C215        C  0.65205099  0.84472175  0.86097222     0.02800
C216        C  0.69744773  0.85759924  0.85084098    -0.11300
H217        H  0.71551478  0.77512348  0.79566409     0.08400
H218        H  0.59392917  0.79726725  0.85252997     0.05900
H219        H  0.71578222  0.88634949  0.86178562     0.05800
C220        C  0.78796824  0.31455766  0.84659214     0.02800
C221        C  0.81587037  0.34594942  0.86384244    -0.13300
C222        C  0.85845378  0.33128508  0.87742805     0.00300
C223        C  0.87411570  0.28530003  0.87177143    -0.11800
C224        C  0.84905750  0.25513676  0.85222407     0.02800
C225        C  0.80511063  0.26916256  0.84119029    -0.11300
H226        H  0.80504218  0.38207401  0.86600956     0.08400
H227        H  0.90706383  0.27347126  0.88142100     0.05900
H228        H  0.78519579  0.24517705  0.82694345     0.05800
C229        C  0.36552593  0.13501801  0.87088404     0.02800
C230        C  0.32466907  0.11499854  0.85815095    -0.13300
C231        C  0.29777446  0.13989965  0.83656772     0.00300
C232        C  0.31296966  0.18367226  0.82628828    -0.11800
C233        C  0.35506818  0.20266549  0.83681335     0.02800
C234        C  0.38017688  0.17939177  0.86006678    -0.11300
H235        H  0.31417922  0.07979379  0.86438599     0.08400
H236        H  0.29251639  0.20252001  0.80923171     0.05900
H237        H  0.41189487  0.19533203  0.86893713     0.05800
C238        C  0.19120657  0.71541571  0.85469567     0.02800
C239        C  0.16075616  0.68754696  0.87274560    -0.13300
C240        C  0.17304926  0.64128013  0.88094407     0.00300
C241        C  0.21792869  0.62490270  0.87260218    -0.11800
C242        C  0.24961314  0.65298669  0.85592092     0.02800
C243        C  0.23576110  0.69797580  0.84701056    -0.11300
H244        H  0.12670258  0.70115104  0.87904944     0.08400
H245        H  0.22786884  0.58930229  0.87803210     0.05900
H246        H  0.25876709  0.71861251  0.83236459     0.05800
C247        C  0.16484689  0.32662764  0.54731693     0.02800
C248        C  0.14915735  0.28279200  0.55813012    -0.13300
C249        C  0.17800672  0.25423326  0.57658611     0.00300
C250        C  0.22242746  0.27074783  0.58535054    -0.11800
C251        C  0.23810113  0.31501846  0.57586740     0.02800
C252        C  0.21003343  0.34195893  0.55598566    -0.11300
H253        H  0.11354895  0.27164939  0.55347174     0.08400
H254        H  0.24316177  0.25084453  0.60169867     0.05900
H255        H  0.22228744  0.37631978  0.54901761     0.05800
C256        C  0.66690435  0.19810200  0.59718121     0.02800
C257        C  0.70924467  0.18172563  0.60918351    -0.13300
C258        C  0.72880404  0.13992774  0.59872313     0.00300
C259        C  0.70645196  0.11495167  0.57501083    -0.11800
C260        C  0.66290874  0.13000239  0.56318152     0.02800
C261        C  0.64284331  0.17124790  0.57515167    -0.11300
H262        H  0.72711081  0.20166661  0.62693073     0.08400
H263        H  0.72255082  0.08325066  0.56633026     0.05900
H264        H  0.60867695  0.18267041  0.56733484     0.05800
C265        C  0.40822075  0.58224051  0.78840341     0.42200
N266        N  0.43188093  0.53561211  0.75273501     0.01000
C267        C  0.63694807  0.40632196  0.74879631    -0.06800
H268        H  0.65039434  0.58986284  0.72960345     0.06500
C269        C  0.57151800  0.56394671  0.63072706    -0.07200
Co270      Co  0.51899908  0.48462876  0.77048664     0.74200
N271        N  0.59839454  0.53831823  0.74305284    -0.26400
Co272      Co  0.59691396  0.48526977  0.70908290     0.74100
C273        C  0.61801379  0.58229576  0.63931459     0.42300
N274        N  0.45595359  0.53801453  0.66089087     0.00700
N275        N  0.59357870  0.53424015  0.67419521     0.00800
N276        N  0.58812172  0.40670453  0.78998423    -0.47200
H277        H  0.47250231  0.56573190  0.81858757     0.06500
N278        N  0.56881862  0.53655438  0.76662518     0.01100
N279        N  0.59012510  0.43221533  0.67559423     0.00800
C280        C  0.59654230  0.36896421  0.64960913     0.42400
N281        N  0.42557522  0.53860219  0.68406733    -0.25800
C282        C  0.46320556  0.39823236  0.79185167    -0.06700
N283        N  0.39714367  0.56353870  0.76080637    -0.46900
N284        N  0.61682409  0.39461227  0.67217411    -0.47100
C285        C  0.41996674  0.37535503  0.78271385     0.42200
N286        N  0.57302731  0.43514263  0.76778189     0.01000
N287        N  0.42128295  0.43677944  0.68344700    -0.25800
N288        N  0.46548728  0.53410579  0.77353545    -0.26300
N289        N  0.44971791  0.43648020  0.65940474     0.00700
H290        H  0.35455168  0.40456447  0.69264736     0.06600
H291        H  0.53026280  0.38431509  0.62129288     0.06600
N292        N  0.60171014  0.43603983  0.74388285    -0.26400
N293        N  0.55975392  0.53395792  0.65356328    -0.26000
N294        N  0.43240253  0.43323068  0.75226493     0.01000
C295        C  0.60668091  0.60002858  0.77417628     0.42400
C296        C  0.39858160  0.57685253  0.68108378    -0.07200
N297        N  0.55422504  0.43243281  0.65626366    -0.26000
H298        H  0.55137048  0.56957650  0.60993173     0.06600
N299        N  0.57233991  0.57263946  0.78545744    -0.47200
H300        H  0.37088954  0.58750796  0.69668380     0.06600
C301        C  0.39310098  0.38997875  0.64693321     0.42300
C302        C  0.45388983  0.56283595  0.79692027    -0.06700
Co303      Co  0.42692565  0.48595256  0.71821114     0.73800
N304        N  0.45197963  0.57427725  0.64212267    -0.46900
C305        C  0.62782726  0.38623449  0.77916825     0.42500
N306        N  0.40281335  0.39825203  0.75777176    -0.46900
Co307      Co  0.50485234  0.48523092  0.65687098     0.73900
C308        C  0.55545387  0.39391158  0.63883992    -0.07200
C309        C  0.62384771  0.57785295  0.74568967    -0.06800
N310        N  0.46794716  0.43350976  0.77185877    -0.26300
N311        N  0.62870181  0.56208304  0.66653198    -0.47100
H312        H  0.66767534  0.40310241  0.73423771     0.06600
C313        C  0.38525075  0.40802421  0.67804928    -0.07200
Cl314      Cl  0.51189475  0.48515599  0.71364652    -0.50200
C315        C  0.41659005  0.60017533  0.65337443     0.42300
H316        H  0.48682936  0.39017381  0.81063323     0.06500
N317        N  0.43356469  0.40972045  0.63665083    -0.46900
C318        C  0.77985670  0.66095555  0.57629373     0.02800
C319        C  0.79635659  0.70643842  0.58195052    -0.13300
C320        C  0.84145921  0.71986870  0.57266405     0.00300
C321        C  0.86771553  0.68990466  0.55367655    -0.11800
C322        C  0.85139739  0.64461010  0.54661264     0.02800
C323        C  0.80749290  0.63019115  0.55845782    -0.11300
H324        H  0.77587570  0.72990079  0.59627310     0.08400
H325        H  0.90242716  0.70077289  0.54625896     0.05900
H326        H  0.79588004  0.59444384  0.55510693     0.05800
C327        C  0.29843181  0.83020861  0.59374125     0.02800
C328        C  0.31657313  0.78871649  0.60557814    -0.13300
C329        C  0.35912362  0.77102656  0.59475305     0.00300
C330        C  0.38567499  0.79719594  0.57341087    -0.11800
C331        C  0.36828692  0.83978833  0.56144138     0.02800
C332        C  0.32318241  0.85470680  0.57073795    -0.11300
H333        H  0.29723921  0.76989070  0.62332469     0.08400
H334        H  0.41993272  0.78456159  0.56650055     0.05900
H335        H  0.30809966  0.88625208  0.56111659     0.05800
C336        C  0.90341879  0.88530714  0.78261882     0.42200
N337        N  0.96188325  0.89949042  0.75283824     0.01000
C338        C  0.10496984  0.09229228  0.75192214    -0.06800
H339        H  0.93144530  0.13452300  0.74387741     0.06500
C340        C  0.92682069  0.03571777  0.64018799    -0.07200
Co341      Co  0.01444922  0.98375425  0.77396166     0.74200
N342        N  0.96431002  0.06770342  0.75029992    -0.26400
Co343      Co  0.01357534  0.06629249  0.71518181     0.74100
C344        C  0.90346815  0.07777319  0.65087552     0.42300
N345        N  0.96440898  0.92499036  0.66076926     0.00700
N346        N  0.96085786  0.06310314  0.68116089     0.00800
N347        N  0.10276641  0.03754520  0.78988473    -0.47200
H348        H  0.91927784  0.94898982  0.81328890     0.06500
N349        N  0.96481199  0.03768243  0.77342112     0.01100
N350        N  0.06328187  0.06579406  0.68034557     0.00800
C351        C  0.10838897  0.09466006  0.64525987     0.42400
N352        N  0.96490330  0.89457665  0.68368312    -0.25800
C353        C  0.09382072  0.91686967  0.79740950    -0.06700
N354        N  0.92597109  0.87048820  0.75685973    -0.46900
N355        N  0.08985699  0.10224105  0.67344650    -0.47100
C356        C  0.11327918  0.87205138  0.78701814     0.42200
N357        N  0.06635993  0.03400216  0.77121259     0.01000
N358        N  0.06718979  0.89821631  0.68427282    -0.25800
N359        N  0.96289797  0.93288215  0.77396440    -0.26300
N360        N  0.06593720  0.92963684  0.66178895     0.00700
H361        H  0.11678661  0.84339445  0.69509196     0.06600
H362        H  0.09328684  0.03288130  0.61256448     0.06600
N363        N  0.06654567  0.06551434  0.74880976    -0.26400
N364        N  0.96181032  0.02953720  0.66017211    -0.26000
N365        N  0.06414252  0.89751718  0.75333715     0.01000
C366        C  0.91767576  0.09233315  0.78815019     0.42400
C367        C  0.93567036  0.85946191  0.67712021    -0.07200
N368        N  0.06254592  0.03410376  0.65827808    -0.26000
H369        H  0.91931386  0.01384673  0.62041882     0.06600
N370        N  0.93855001  0.05192000  0.79700934    -0.47200
H371        H  0.93218500  0.82757725  0.69045433     0.06600
C372        C  0.12804292  0.89077565  0.65247807     0.42300
C373        C  0.92736082  0.92684150  0.79374111    -0.06700
Co374      Co  0.01444593  0.89657539  0.71852367     0.73800
N375        N  0.93709999  0.91117511  0.63765456    -0.46900
C376        C  0.12888427  0.07320393  0.77901177     0.42500
N377        N  0.09242647  0.86232016  0.75984418    -0.46900
Co378      Co  0.01364225  0.97936548  0.65974147     0.73900
C379        C  0.09039578  0.04909697  0.63506156    -0.07200
C380        C  0.93505954  0.10261664  0.75714667    -0.06800
N381        N  0.06383253  0.92984166  0.77500231    -0.26300
N382        N  0.92576683  0.09277271  0.67662943    -0.47100
H383        H  0.11507617  0.12095109  0.73695149     0.06600
C384        C  0.10577354  0.87190012  0.68036605    -0.07200
Cl385      Cl  0.01391643  0.98147254  0.71685222    -0.50200
C386        C  0.91714426  0.87023966  0.64655930     0.42300
H387        H  0.09865140  0.93475317  0.81919026     0.06500
N388        N  0.10144505  0.92625713  0.64223077    -0.46900
C389        C  0.17215274  0.87671469  0.63767607    -0.06400
C390        C  0.17070110  0.86131638  0.60691077    -0.17600
C391        C  0.21140433  0.84630255  0.59175644     0.10800
C392        C  0.25473113  0.84841018  0.60734266    -0.06300
C393        C  0.25626529  0.86491938  0.63787804    -0.17600
C394        C  0.21554488  0.87946694  0.65311304     0.10800
S395        S  0.20549326  0.82331142  0.55315121    -0.32500
S396        S  0.22153342  0.90246861  0.69171741    -0.32600
H397        H  0.18484971  0.93513270  0.68954870     0.28800
H398        H  0.24176074  0.79021288  0.55531826     0.28800
H399        H  0.13737101  0.85958271  0.59495096     0.19400
H400        H  0.28955480  0.86647973  0.64990388     0.19400
C401        C  0.86417305  0.75993540  0.58849346    -0.06400
C402        C  0.84452051  0.80495744  0.58632715    -0.17600
C403        C  0.86141289  0.84214959  0.60446953     0.10800
C404        C  0.89913985  0.83435430  0.62494587    -0.06300
C405        C  0.91980257  0.78984993  0.62603723    -0.17600
C406        C  0.90232535  0.75263119  0.60874576     0.10800
S407        S  0.83202068  0.89778056  0.60151589    -0.32500
S408        S  0.92828144  0.69598969  0.61558631    -0.32600
H409        H  0.88544508  0.67147394  0.61643887     0.28800
H410        H  0.83851494  0.91112818  0.63247648     0.28800
H411        H  0.81479858  0.81071647  0.57123593     0.19400
H412        H  0.94908121  0.78340016  0.64138037     0.19400
C413        C  0.40185960  0.64462941  0.63966236    -0.06400
C414        C  0.36035258  0.64534910  0.62252469    -0.17600
C415        C  0.34733562  0.68517933  0.60589304     0.10800
C416        C  0.37569498  0.72585475  0.60721158    -0.06300
C417        C  0.41770440  0.72477219  0.62400036    -0.17600
C418        C  0.43109404  0.68455575  0.64020861     0.10800
S419        S  0.29481901  0.68148467  0.58277455    -0.32500
S420        S  0.48538845  0.68655876  0.66154327    -0.32600
H421        H  0.47201464  0.65452919  0.68466521     0.28800
H422        H  0.30924649  0.71406750  0.56024758     0.28800
H423        H  0.33873852  0.61414949  0.62126647     0.19400
H424        H  0.43935294  0.75592218  0.62536529     0.19400
C425        C  0.65471217  0.60730016  0.62105338    -0.06400
C426        C  0.68934269  0.63075412  0.63817222    -0.17600
C427        C  0.73028788  0.64811526  0.62431874     0.10800
C428        C  0.73628356  0.64421163  0.59193750    -0.06300
C429        C  0.70089699  0.62257640  0.57446770    -0.17600
C430        C  0.66075020  0.60341820  0.58861412     0.10800
S431        S  0.77643269  0.67059641  0.64892077    -0.32500
S432        S  0.62131421  0.57126929  0.56417044    -0.32600
H433        H  0.62325138  0.53060285  0.58251213     0.28800
H434        H  0.75088610  0.67051304  0.67679484     0.28800
H435        H  0.68539504  0.63329808  0.66301955     0.19400
H436        H  0.70541554  0.61908062  0.54969283     0.19400
C437        C  0.64790958  0.24293715  0.60864755    -0.06400
C438        C  0.60291366  0.24361220  0.62186207    -0.17600
C439        C  0.58570892  0.28392469  0.63622795     0.10800
C440        C  0.61413807  0.32443797  0.63750399    -0.06300
C441        C  0.65890232  0.32390283  0.62422443    -0.17600
C442        C  0.67562418  0.28409529  0.60916537     0.10800
S443        S  0.52804579  0.28082810  0.65343920    -0.32500
S444        S  0.73163056  0.28884656  0.58981809    -0.32600
H445        H  0.72088459  0.25715610  0.56599296     0.28800
H446        H  0.53691410  0.31290578  0.67734890     0.28800
H447        H  0.58164272  0.21212422  0.62184855     0.19400
H448        H  0.68016969  0.35539660  0.62439633     0.19400
C449        C  0.77315195  0.12326843  0.61253356    -0.06400
C450        C  0.81192651  0.11619160  0.59310680    -0.17600
C451        C  0.85567765  0.10409928  0.60520902     0.10800
C452        C  0.86078151  0.09809167  0.63747382    -0.06300
C453        C  0.82241239  0.10612954  0.65697938    -0.17600
C454        C  0.77854175  0.11783905  0.64489477     0.10800
S455        S  0.90396830  0.09882703  0.57837805    -0.32500
S456        S  0.73046032  0.12283191  0.67192227    -0.32600
H457        H  0.69580617  0.10638899  0.65153680     0.28800
H458        H  0.93873957  0.11371038  0.59921005     0.28800
H459        H  0.80839594  0.12140351  0.56839249     0.19400
H460        H  0.82600027  0.10080411  0.68168188     0.19400
C461        C  0.12382074  0.13379678  0.62518620    -0.06400
C462        C  0.16525531  0.12960277  0.60786988    -0.17600
C463        C  0.18279904  0.16746768  0.59056624     0.10800
C464        C  0.15879660  0.21084204  0.59092668    -0.06300
C465        C  0.11640892  0.21421005  0.60731386    -0.17600
C466        C  0.09837639  0.17626966  0.62408177     0.10800
S467        S  0.23550668  0.15802645  0.56829670    -0.32500
S468        S  0.04218658  0.18254066  0.64328526    -0.32600
H469        H  0.03276358  0.22862910  0.63372009     0.28800
H470        H  0.22472948  0.19046989  0.54490014     0.28800
H471        H  0.18440332  0.09687588  0.60818188     0.19400
H472        H  0.09791683  0.24726008  0.60760438     0.19400
C473        C  0.27865299  0.33653541  0.59195151    -0.06400
C474        C  0.32433423  0.31969236  0.58676275    -0.17600
C475        C  0.36271370  0.33678772  0.60384111     0.10800
C476        C  0.35533434  0.37141189  0.62668569    -0.06300
C477        C  0.30976239  0.38897266  0.63100990    -0.17600
C478        C  0.27163968  0.37179910  0.61430134     0.10800
S479        S  0.41963496  0.31199587  0.59615144    -0.32500
S480        S  0.21459901  0.39555993  0.62340500    -0.32600
H481        H  0.19008273  0.35296908  0.62111387     0.28800
H482        H  0.43538496  0.31425838  0.62685656     0.28800
H483        H  0.32994010  0.29241022  0.56978142     0.19400
H484        H  0.30340597  0.41615386  0.64792764     0.19400
C485        C  0.29391344  0.63270103  0.84347299    -0.06400
C486        C  0.29152891  0.58860455  0.82928679    -0.17600
C487        C  0.32994464  0.56981563  0.81372622     0.10800
C488        C  0.37124307  0.59675793  0.81021800    -0.06300
C489        C  0.37504804  0.63957543  0.82574432    -0.17600
C490        C  0.33724870  0.65727137  0.84301481     0.10800
S491        S  0.32392918  0.51100950  0.79900146    -0.32500
S492        S  0.34687742  0.71067409  0.86426113    -0.32600
H493        H  0.31399219  0.70077647  0.88770279     0.28800
H494        H  0.37089403  0.49832970  0.80438618     0.28800
H495        H  0.25908899  0.56878873  0.82964766     0.19400
H496        H  0.40725581  0.65965091  0.82399067     0.19400
C497        C  0.13890976  0.83611869  0.80512432    -0.06400
C498        C  0.13336004  0.83379054  0.83743622    -0.17600
C499        C  0.15140335  0.79607364  0.85463220     0.10800
C500        C  0.17448730  0.75897658  0.83916567    -0.06300
C501        C  0.18106546  0.76236687  0.80702037    -0.17600
C502        C  0.16479166  0.80060560  0.79013843     0.10800
S503        S  0.14424655  0.79783810  0.89604133    -0.32500
S504        S  0.17874227  0.80182054  0.74943607    -0.32600
H505        H  0.18390503  0.85072663  0.74797760     0.28800
H506        H  0.18532375  0.77269370  0.90282042     0.28800
H507        H  0.11394591  0.86088320  0.84936320     0.19400
H508        H  0.19878439  0.73453121  0.79466869     0.19400
C509        C  0.40011142  0.33286010  0.79680589    -0.06400
C510        C  0.39059654  0.29461308  0.77766346    -0.17600
C511        C  0.37813017  0.25121017  0.79018707     0.10800
C512        C  0.37292564  0.24634491  0.82263472    -0.06300
C513        C  0.38216227  0.28478956  0.84173797    -0.17600
C514        C  0.39554870  0.32792985  0.82921395     0.10800
S515        S  0.37203419  0.20294632  0.76359956    -0.32500
S516        S  0.40459247  0.37566452  0.85579027    -0.32600
H517        H  0.38900194  0.41089192  0.83554322     0.28800
H518        H  0.38792627  0.16838075  0.78423300     0.28800
H519        H  0.39526876  0.29791993  0.75286580     0.19400
H520        H  0.37774698  0.28149880  0.86654929     0.19400
C521        C  0.25503658  0.11985563  0.82276811    -0.06400
C522        C  0.25404686  0.11398211  0.79055343    -0.17600
C523        C  0.21375511  0.09801644  0.77561503     0.10800
C524        C  0.17312912  0.08829272  0.79319342    -0.06300
C525        C  0.17449396  0.09277881  0.82548205    -0.17600
C526        C  0.21468546  0.10918325  0.84042493     0.10800
S527        S  0.21728317  0.08888482  0.73443562    -0.32500
S528        S  0.21122259  0.11796492  0.88165304    -0.32600
H529        H  0.24084882  0.15733035  0.88252432     0.28800
H530        H  0.18890836  0.04854181  0.73429433     0.28800
H531        H  0.28512270  0.12173906  0.77694673     0.19400
H532        H  0.14337998  0.08514149  0.83907529     0.19400
C533        C  0.90310380  0.12960176  0.80985050    -0.06400
C534        C  0.93047959  0.17046570  0.81061820    -0.17600
C535        C  0.91435499  0.21128612  0.82479371     0.10800
C536        C  0.87040622  0.21118843  0.84017055    -0.06300
C537        C  0.84423026  0.16931820  0.84098709    -0.17600
C538        C  0.86003448  0.12866546  0.82599459     0.10800
S539        S  0.94947139  0.26325541  0.81920299    -0.32500
S540        S  0.82173299  0.07839609  0.82591926    -0.32600
H541        H  0.85733220  0.04464785  0.82398479     0.28800
H542        H  0.91126241  0.29269335  0.81262502     0.28800
H543        H  0.96355214  0.17158303  0.79817766     0.19400
H544        H  0.81041151  0.16875801  0.85249557     0.19400
C545        C  0.74342584  0.32983568  0.83119639    -0.06400
C546        C  0.73587003  0.31660248  0.80026400    -0.17600
C547        C  0.69573776  0.33027544  0.78414552     0.10800
C548        C  0.66354002  0.36145341  0.79798308    -0.06300
C549        C  0.66965142  0.37334224  0.82920628    -0.17600
C550        C  0.70824218  0.35671755  0.84615406     0.10800
S551        S  0.68705871  0.30530954  0.74627191    -0.32500
S552        S  0.70910515  0.36946077  0.88689887    -0.32600
H553        H  0.73098305  0.32732064  0.89545146     0.28800
H554        H  0.63772422  0.30643283  0.74751778     0.28800
H555        H  0.76148371  0.29528680  0.78828524     0.19400
H556        H  0.64457089  0.39620969  0.84042169     0.19400
C557        C  0.63247386  0.73811463  0.80953299    -0.06400
C558        C  0.62393449  0.70096708  0.82995943    -0.17600
C559        C  0.61675369  0.65550330  0.81905404     0.10800
C560        C  0.61736455  0.64673208  0.78684145    -0.06300
C561        C  0.62409177  0.68416186  0.76635597    -0.17600
C562        C  0.63079762  0.72973311  0.77729102     0.10800
S563        S  0.61027950  0.60989394  0.84762643    -0.32500
S564        S  0.63603537  0.77571911  0.74891143    -0.32600
H565        H  0.62108868  0.81201553  0.76850513     0.28800
H566        H  0.63624266  0.57639060  0.83105716     0.28800
H567        H  0.62589399  0.70684031  0.85468422     0.19400
H568        H  0.62289499  0.67811634  0.74163600     0.19400
C569        C  0.76627090  0.84814630  0.81482568    -0.06400
C570        C  0.80362355  0.85052575  0.83580377    -0.17600
C571        C  0.84927992  0.86029903  0.82572296     0.10800
C572        C  0.85796532  0.86795823  0.79393321    -0.06300
C573        C  0.82093854  0.86486891  0.77290152    -0.17600
C574        C  0.77515730  0.85617571  0.78300457     0.10800
S575        S  0.89505943  0.86113926  0.85443062    -0.32500
S576        S  0.72952075  0.85894980  0.75428871    -0.32600
H577        H  0.69461464  0.87596810  0.77435855     0.28800
H578        H  0.93107396  0.84601880  0.83453880     0.28800
H579        H  0.79735649  0.84370325  0.86012936     0.19400
H580        H  0.82727367  0.87195186  0.74860612     0.19400
C581        C  0.45569593  0.05244908  0.93004152    -0.06400
C582        C  0.40682956  0.05053812  0.93405793    -0.17600
C583        C  0.37688124  0.07960288  0.91703746     0.10800
C584        C  0.39545677  0.10802293  0.89296493    -0.06300
C585        C  0.44446484  0.10966888  0.88911909    -0.17600
C586        C  0.47449999  0.08420379  0.90820304     0.10800
S587        S  0.31624624  0.08099705  0.92895288    -0.32500
S588        S  0.53643875  0.09558021  0.90428642    -0.32600
H589        H  0.54739334  0.08738791  0.93551278     0.28800
H590        H  0.30974424  0.12855496  0.92172263     0.28800
H591        H  0.39195617  0.02723433  0.95128597     0.19400
H592        H  0.45991778  0.13125455  0.87117806     0.19400
C593        C  0.57861554  0.93012517  0.92851420    -0.06400
C594        C  0.57459440  0.88116636  0.92983702    -0.17600
C595        C  0.60034486  0.85227304  0.90970822     0.10800
C596        C  0.62801395  0.87258952  0.88578909    -0.06300
C597        C  0.63275390  0.92161028  0.88527289    -0.17600
C598        C  0.61030489  0.95003522  0.90700679     0.10800
S599        S  0.59829667  0.79020649  0.91715359    -0.32500
S600        S  0.62499237  0.01140478  0.90663517    -0.32600
H601        H  0.61635104  0.01913481  0.93824244     0.28800
H602        H  0.64455687  0.78152779  0.90731021     0.28800
H603        H  0.55156403  0.86530827  0.94687415     0.19400
H604        H  0.65429321  0.93830746  0.86777070     0.19400
C605        C  0.13215514  0.35916729  0.53071830    -0.06400
C606        C  0.13035784  0.40620473  0.54014564    -0.17600
C607        C  0.10230237  0.43913474  0.52498419     0.10800
C608        C  0.07225371  0.42485323  0.50072950    -0.06300
C609        C  0.07208918  0.37728618  0.49233248    -0.17600
C610        C  0.10277890  0.34481063  0.50608549     0.10800
S611        S  0.10954035  0.49920996  0.53657182    -0.32500
S612        S  0.10658797  0.28651445  0.49009309    -0.32600
H613        H  0.07239460  0.29205198  0.46699329     0.28800
H614        H  0.10388195  0.51828739  0.50686744     0.28800
H615        H  0.15207691  0.41794994  0.55914011     0.19400
H616        H  0.04888383  0.36591222  0.47406751     0.19400
C617        C  0.94834109  0.55081405  0.50005297    -0.06400
C618        C  0.90085662  0.55220558  0.49115041    -0.17600
C619        C  0.86887771  0.58317186  0.50501839     0.10800
C620        C  0.88323276  0.61112246  0.53028445    -0.06300
C621        C  0.92998741  0.60771898  0.54027474    -0.17600
C622        C  0.96271020  0.57945020  0.52503764     0.10800
S623        S  0.81148385  0.58753765  0.48787455    -0.32500
S624        S  0.02268887  0.58463129  0.53760218    -0.32600
H625        H  0.04263357  0.57976633  0.50807042     0.28800
H626        H  0.80632294  0.63580235  0.49319739     0.28800
H627        H  0.88891037  0.53032937  0.47231901     0.19400
H628        H  0.94171750  0.62854089  0.55968574     0.19400
C629        C  0.13941003  0.60877299  0.89716669    -0.06400
C630        C  0.15725321  0.57698713  0.91916391    -0.17600
C631        C  0.12862816  0.54347352  0.93350145     0.10800
C632        C  0.07955192  0.54492021  0.92920227    -0.06300
C633        C  0.06141689  0.57625920  0.90726151    -0.17600
C634        C  0.09074210  0.60625478  0.89020218     0.10800
S635        S  0.15742884  0.49776481  0.95496286    -0.32500
S636        S  0.06387582  0.63666181  0.85828561    -0.32600
H637        H  0.10263713  0.63170043  0.83834481     0.28800
H638        H  0.12356944  0.46327510  0.94851251     0.28800
H639        H  0.19428282  0.57698862  0.92466263     0.19400
H640        H  0.02403989  0.57643193  0.90272149     0.19400
C641        C  0.88898066  0.36453933  0.89527264    -0.06400
C642        C  0.93769095  0.36461186  0.88956046    -0.17600
C643        C  0.96851391  0.39308280  0.90637532     0.10800
C644        C  0.95055025  0.42564508  0.92798291    -0.06300
C645        C  0.90177413  0.42709702  0.93281328    -0.17600
C646        C  0.87137106  0.39563643  0.91802760     0.10800
S647        S  0.03049637  0.38394233  0.90036540    -0.32500
S648        S  0.81160577  0.39440317  0.93158858    -0.32600
H649        H  0.80643903  0.34563989  0.92869690     0.28800
H650        H  0.04325462  0.39134307  0.93137458     0.28800
H651        H  0.95229709  0.34127527  0.87235862     0.19400
H652        H  0.88739732  0.45149272  0.94946835     0.19400
C653        C  0.58289368  0.04202867  0.50106016    -0.06400
C654        C  0.58364090  0.09078599  0.49672670    -0.17600
C655        C  0.61220126  0.11983226  0.51478305     0.10800
C656        C  0.63707585  0.10072379  0.54018981    -0.06300
C657        C  0.63595158  0.05197464  0.54457796    -0.17600
C658        C  0.61100258  0.02254468  0.52473748     0.10800
S659        S  0.61743311  0.18008021  0.50273616    -0.32500
S660        S  0.61757851  0.96034641  0.53064951    -0.32600
H661        H  0.61315391  0.94824878  0.49927889     0.28800
H662        H  0.66413725  0.18542268  0.51258833     0.28800
H663        H  0.56265667  0.10635975  0.47859549     0.19400
H664        H  0.65485883  0.03633743  0.56365478     0.19400
C665        C  0.45759222  0.92186947  0.50016665    -0.06400
C666        C  0.43015913  0.94384126  0.52294778    -0.17600
C667        C  0.40254875  0.91818982  0.54375544     0.10800
C668        C  0.39799699  0.86905236  0.54024367    -0.06300
C669        C  0.42442980  0.84711041  0.51683408    -0.17600
C670        C  0.45565822  0.87243887  0.49797118     0.10800
S671        S  0.37833606  0.95025653  0.57595371    -0.32500
S672        S  0.49448258  0.83900015  0.47365551    -0.32600
H673        H  0.53255132  0.87009477  0.47622936     0.28800
H674        H  0.38662920  0.91475155  0.59783566     0.28800
H675        H  0.43209923  0.98151102  0.52558404     0.19400
H676        H  0.42228339  0.80951044  0.51399183     0.19400
C677        C  0.45398764  0.05204896  0.99928072    -0.06400
C678        C  0.45549992  0.10046080  0.99364873    -0.17600
C679        C  0.42266600  0.13106859  0.00686168     0.10800
C680        C  0.39012414  0.11439019  0.02931867    -0.06300
C681        C  0.38982493  0.06601239  0.03571552    -0.17600
C682        C  0.41964465  0.03481961  0.02010133     0.10800
S683        S  0.42171671  0.18973985  0.99147422    -0.32500
S684        S  0.40971350  0.97328566  0.02632545    -0.32600
H685        H  0.41935800  0.95994009  0.99567653     0.28800
H686        H  0.37264437  0.19444530  0.99316561     0.28800
H687        H  0.48083461  0.11425963  0.97726441     0.19400
H688        H  0.36546486  0.05188929  0.05256869     0.19400
C689        C  0.39126796  0.34024363  0.12387477    -0.06400
C690        C  0.40047639  0.33780178  0.09192481    -0.17600
C691        C  0.38390908  0.30023933  0.07397746     0.10800
C692        C  0.35835509  0.26366054  0.08831437    -0.06300
C693        C  0.34839374  0.26689711  0.12005612    -0.17600
C694        C  0.36365402  0.30476489  0.13768576     0.10800
S695        S  0.39607955  0.30138615  0.03307982    -0.32500
S696        S  0.34586824  0.30593695  0.17768231    -0.32600
H697        H  0.34097605  0.35482376  0.17848047     0.28800
H698        H  0.35555151  0.27676306  0.02420150     0.28800
H699        H  0.42154143  0.36470866  0.08093133     0.19400
H700        H  0.32848513  0.23937998  0.13138032     0.19400
C701        C  0.07575369  0.43051660  0.43080880    -0.06400
C702        C  0.05240529  0.40268859  0.40899044    -0.17600
C703        C  0.07697249  0.37566990  0.38746202     0.10800
C704        C  0.12658534  0.37304235  0.38899702    -0.06300
C705        C  0.14984954  0.39971906  0.41172739    -0.17600
C706        C  0.12520358  0.42965710  0.43175867     0.10800
S707        S  0.04264023  0.34974097  0.35697363    -0.32500
S708        S  0.15729007  0.46907623  0.45653082    -0.32600
H709        H  0.20260108  0.45553797  0.44724628     0.28800
H710        H  0.07538403  0.35970872  0.33345300     0.28800
H711        H  0.01445261  0.40408386  0.40763614     0.19400
H712        H  0.18770950  0.39817246  0.41318415     0.19400
C713        C  0.35246102  0.38486774  0.29129365    -0.06400
C714        C  0.34987982  0.37644222  0.32321080    -0.17600
C715        C  0.30725140  0.36428702  0.33730210     0.10800
C716        C  0.26660985  0.36062964  0.31899392    -0.06300
C717        C  0.26886887  0.37096967  0.28733851    -0.17600
C718        C  0.31115100  0.38413544  0.27345798     0.10800
S719        S  0.30550056  0.35073695  0.37811798    -0.32500
S720        S  0.30948076  0.40201358  0.23353178    -0.32600
H721        H  0.34440355  0.43662686  0.23615097     0.28800
H722        H  0.35279369  0.36116457  0.38434878     0.28800
H723        H  0.38161079  0.37813868  0.33688463     0.19400
H724        H  0.23737608  0.36886086  0.27341733     0.19400
C725        C  0.64480821  0.11100056  0.40054664    -0.06400
C726        C  0.59656509  0.10947423  0.39349697    -0.17600
C727        C  0.56543286  0.07961359  0.40924902     0.10800
C728        C  0.58277555  0.04692039  0.43102255    -0.06300
C729        C  0.63123899  0.04704230  0.43719030    -0.17600
C730        C  0.66158343  0.08015251  0.42372900     0.10800
S731        S  0.50369991  0.08724219  0.40174374    -0.32500
S732        S  0.71986380  0.08390284  0.43957508    -0.32600
H733        H  0.72377466  0.13274402  0.43625382     0.28800
H734        H  0.48918401  0.07903072  0.43239336     0.28800
H735        H  0.58246911  0.13260152  0.37599430     0.19400
H736        H  0.64522550  0.02277644  0.45407045     0.19400
C737        C  0.66401062  0.26039385  0.34066794    -0.06400
C738        C  0.68493054  0.30506810  0.34200112    -0.17600
C739        C  0.66852093  0.34234070  0.32365834     0.10800
C740        C  0.62978073  0.33520685  0.30389734    -0.06300
C741        C  0.60826289  0.29098829  0.30328961    -0.17600
C742        C  0.62536037  0.25359349  0.32070611     0.10800
S743        S  0.69986710  0.39717356  0.32534406    -0.32500
S744        S  0.59828845  0.19728442  0.31435669    -0.32600
H745        H  0.64070350  0.17222055  0.31337325     0.28800
H746        H  0.69174336  0.41048037  0.29452420     0.28800
H747        H  0.71525742  0.31048041  0.35662754     0.19400
H748        H  0.57847218  0.28493040  0.28829578     0.19400
C749        C  0.12996367  0.60357805  0.03927085    -0.06400
C750        C  0.12690324  0.55509518  0.04450038    -0.17600
C751        C  0.10193378  0.52554509  0.02471213     0.10800
C752        C  0.07637739  0.54475456  0.99964663    -0.06300
C753        C  0.07913286  0.59325256  0.99439874    -0.17600
C754        C  0.10687984  0.62239057  0.01303441     0.10800
S755        S  0.10536340  0.46353057  0.03276354    -0.32500
S756        S  0.11307490  0.68248444  0.00089255    -0.32600
H757        H  0.15969721  0.68726225  0.01102136     0.28800
H758        H  0.09770760  0.44801684  0.00241100     0.28800
H759        H  0.14433499  0.53975415  0.06428588     0.19400
H760        H  0.05988364  0.60862187  0.97537753     0.19400
C761        C  0.26880383  0.62390011  0.10991213    -0.06400
C762        C  0.27025897  0.61908245  0.14223998    -0.17600
C763        C  0.31082809  0.60410299  0.15733605     0.10800
C764        C  0.35152253  0.59436543  0.13988613    -0.06300
C765        C  0.34989502  0.59819053  0.10751248    -0.17600
C766        C  0.30932604  0.61345601  0.09237663     0.10800
S767        S  0.30736248  0.59560109  0.19858278    -0.32500
S768        S  0.31236758  0.62082249  0.05098641    -0.32600
H769        H  0.28256373  0.65993661  0.04970601     0.28800
H770        H  0.33477832  0.55470998  0.19886480     0.28800
H771        H  0.23913508  0.62643561  0.15584471     0.19400
H772        H  0.38098206  0.59055359  0.09394237     0.19400
C773        C  0.23554770  0.14516608  0.08552723    -0.06400
C774        C  0.22805234  0.16001119  0.11622623    -0.17600
C775        C  0.18955422  0.14517559  0.13357720     0.10800
C776        C  0.15871747  0.11134720  0.12139043    -0.06300
C777        C  0.16463390  0.09724131  0.09045569    -0.17600
C778        C  0.20198660  0.11451507  0.07220755     0.10800
S779        S  0.18170779  0.17150728  0.17116715    -0.32500
S780        S  0.20397377  0.09669647  0.03227612    -0.32600
H781        H  0.22547929  0.13790650  0.02139092     0.28800
H782        H  0.13245031  0.16800067  0.17130936     0.28800
H783        H  0.25280917  0.18333786  0.12730195     0.19400
H784        H  0.14071693  0.07180708  0.08063189     0.19400
C785        C  0.12261269  0.15150603  0.28743705    -0.06400
C786        C  0.16696659  0.15303400  0.30120191    -0.17600
C787        C  0.18149774  0.19226898  0.31803490     0.10800
C788        C  0.15145372  0.23152069  0.32061001    -0.06300
C789        C  0.10715260  0.22996785  0.30659341    -0.17600
C790        C  0.09259842  0.19064172  0.28990300     0.10800
S791        S  0.23799188  0.18927897  0.33665945    -0.32500
S792        S  0.03595516  0.19308541  0.27140779    -0.32600
H793        H  0.04752252  0.16323287  0.24671359     0.28800
H794        H  0.22655459  0.21924366  0.36130915     0.28800
H795        H  0.18956489  0.12261831  0.30005724     0.19400
H796        H  0.08440012  0.26028196  0.30771305     0.19400
C797        C  0.87188984  0.11421795  0.30421581    -0.06400
C798        C  0.86658650  0.10220355  0.33556226    -0.17600
C799        C  0.82803197  0.11850715  0.35306753     0.10800
C800        C  0.79292167  0.14589657  0.33856063    -0.06300
C801        C  0.79991955  0.15929490  0.30755741    -0.17600
C802        C  0.83952686  0.14562943  0.29089368     0.10800
S803        S  0.82503256  0.10513676  0.39383196    -0.32500
S804        S  0.84693467  0.17050340  0.25277543    -0.32600
H805        H  0.89627990  0.16872597  0.25290672     0.28800
H806        H  0.86851105  0.08215082  0.39591682     0.28800
H807        H  0.89177395  0.07877328  0.34603214     0.19400
H808        H  0.77410653  0.18062807  0.29584283     0.19400
C809        C  0.11999328  0.82916496  0.13812485    -0.06400
C810        C  0.16306901  0.82746339  0.12262450    -0.17600
C811        C  0.17683758  0.78733670  0.10658023     0.10800
C812        C  0.14763121  0.74714089  0.10689467    -0.06300
C813        C  0.10416415  0.74915084  0.12216125    -0.17600
C814        C  0.09012878  0.78966894  0.13783786     0.10800
S815        S  0.23155769  0.79014050  0.08551138    -0.32500
S816        S  0.03465636  0.78823633  0.15804764    -0.32600
H817        H  0.04762855  0.81918143  0.18180212     0.28800
H818        H  0.21849575  0.75817254  0.06236607     0.28800
H819        H  0.18548211  0.85815700  0.12218848     0.19400
H820        H  0.08189470  0.71838150  0.12294503     0.19400
C821        C  0.89222769  0.37114198  0.03752986    -0.06400
C822        C  0.89199426  0.42007645  0.04088235    -0.17600
C823        C  0.91731590  0.44919311  0.02087403     0.10800
C824        C  0.94669154  0.42931268  0.99797880    -0.06300
C825        C  0.94659955  0.38046727  0.99428140    -0.17600
C826        C  0.91821447  0.35154538  0.01274028     0.10800
S827        S  0.90994589  0.51150696  0.02562539    -0.32500
S828        S  0.91493098  0.29059660  0.00222717    -0.32600
H829        H  0.86798739  0.28466161  0.01160583     0.28800
H830        H  0.91696534  0.52280701  0.99428542     0.28800
H831        H  0.87189816  0.43603312  0.05935509     0.19400
H832        H  0.96842270  0.36468401  0.97661017     0.19400
C833        C  0.88057951  0.23235640  0.10939139    -0.06400
C834        C  0.91334543  0.23415214  0.13349085    -0.17600
C835        C  0.92677370  0.19336972  0.14916311     0.10800
C836        C  0.90709725  0.14995694  0.14047165    -0.06300
C837        C  0.87472212  0.14817959  0.11623771    -0.17600
C838        C  0.86138458  0.18879933  0.10055521     0.10800
S839        S  0.96947151  0.19885543  0.17968077    -0.32500
S840        S  0.81971661  0.18278657  0.06946696    -0.32600
H841        H  0.83529572  0.22152039  0.05218116     0.28800
H842        H  0.95426158  0.16003020  0.19702566     0.28800
H843        H  0.92760412  0.26761779  0.14061752     0.19400
H844        H  0.86059042  0.11471543  0.10898439     0.19400
C845        C  0.75179251  0.34782332  0.10624293    -0.06400
C846        C  0.75019101  0.39270765  0.11927446    -0.17600
C847        C  0.71010654  0.40855060  0.13467411     0.10800
C848        C  0.67036868  0.37912511  0.13691874    -0.06300
C849        C  0.67181786  0.33426122  0.12398218    -0.17600
C850        C  0.71176394  0.31857306  0.10823650     0.10800
S851        S  0.71249124  0.46597235  0.15193683    -0.32500
S852        S  0.70868950  0.26186521  0.09005182    -0.32600
H853        H  0.73992302  0.27242793  0.06577369     0.28800
H854        H  0.68258458  0.45548128  0.17694569     0.28800
H855        H  0.78097676  0.41501641  0.11833659     0.19400
H856        H  0.64095215  0.31208054  0.12501410     0.19400
C857        C  0.39248222  0.86381909  0.39783456    -0.06400
C858        C  0.43997034  0.86626325  0.38909188    -0.17600
C859        C  0.47212888  0.89446648  0.40495399     0.10800
C860        C  0.45644398  0.92338149  0.42951712    -0.06300
C861        C  0.40841938  0.92262660  0.43723351    -0.17600
C862        C  0.37680827  0.89202595  0.42261961     0.10800
S863        S  0.53288347  0.88940498  0.39349828    -0.32500
S864        S  0.31764003  0.88697926  0.43742563    -0.32600
H865        H  0.32349920  0.91618372  0.46329288     0.28800
H866        H  0.55180641  0.89564160  0.42315469     0.28800
H867        H  0.45250775  0.84502399  0.37005689     0.19400
H868        H  0.39584691  0.94529049  0.45546020     0.19400
C869        C  0.16894588  0.87380014  0.30163143    -0.06400
C870        C  0.21300620  0.89542604  0.29818206    -0.17600
C871        C  0.25303571  0.87800587  0.31269534     0.10800
C872        C  0.24937464  0.83865449  0.33236510    -0.06300
C873        C  0.20529749  0.81699434  0.33613912    -0.17600
C874        C  0.16526236  0.83377947  0.32071741     0.10800
S875        S  0.30808011  0.90637401  0.30373634    -0.32500
S876        S  0.11140354  0.80134117  0.32504336    -0.32600
H877        H  0.09582250  0.80922105  0.29468970     0.28800
H878        H  0.33503234  0.86519331  0.30388634     0.28800
H879        H  0.21666564  0.92586755  0.28338367     0.19400
H880        H  0.20224569  0.78633344  0.35079024     0.19400
C881        C  0.36821413  0.71107738  0.34307773    -0.06400
C882        C  0.41404063  0.71114142  0.33102913    -0.17600
C883        C  0.43257041  0.67191642  0.31611890     0.10800
C884        C  0.40423318  0.63184345  0.31166320    -0.06300
C885        C  0.35955062  0.63033200  0.32534121    -0.17600
C886        C  0.34167315  0.66910916  0.34155545     0.10800
S887        S  0.49264731  0.67546822  0.30296253    -0.32500
S888        S  0.28526873  0.66267627  0.36009636    -0.32600
H889        H  0.29381476  0.69547760  0.38364743     0.28800
H890        H  0.50282748  0.62787117  0.30780182     0.28800
H891        H  0.43531850  0.74253612  0.33242675     0.19400
H892        H  0.33807470  0.59924213  0.32280232     0.19400
C893        C  0.57804196  0.92637850  0.99836618    -0.06400
C894        C  0.62675503  0.92664439  0.99293852    -0.17600
C895        C  0.65677815  0.89504949  0.00795185     0.10800
C896        C  0.63862829  0.86450273  0.03093951    -0.06300
C897        C  0.59006568  0.86511599  0.03677539    -0.17600
C898        C  0.55973221  0.89416837  0.02015778     0.10800
S899        S  0.71704327  0.89367665  0.99515357    -0.32500
S900        S  0.49781724  0.88631523  0.02683994    -0.32600
H901        H  0.48457715  0.89437509  0.99599012     0.28800
H902        H  0.72297284  0.84530576  0.99974199     0.28800
H903        H  0.64142692  0.95072382  0.97612170     0.19400
H904        H  0.57526104  0.84205250  0.05416791     0.19400
C905        C  0.65718437  0.71190428  0.08682551    -0.06400
C906        C  0.61118360  0.71368241  0.09854425    -0.17600
C907        C  0.59194723  0.67625123  0.11510738     0.10800
C908        C  0.61965087  0.63631077  0.12109454    -0.06300
C909        C  0.66424067  0.63286475  0.10763608    -0.17600
C910        C  0.68304671  0.66987926  0.09019571     0.10800
S911        S  0.53226473  0.68226002  0.12863641    -0.32500
S912        S  0.74015721  0.66130027  0.07309595    -0.32600
H913        H  0.73373391  0.69316836  0.04866766     0.28800
H914        H  0.52102057  0.63441745  0.12666449     0.28800
H915        H  0.59061536  0.74530255  0.09596483     0.19400
H916        H  0.68510846  0.60174188  0.11150806     0.19400
C917        C  0.77929554  0.83587946  0.09885188    -0.06400
C918        C  0.81403098  0.85814479  0.08098342    -0.17600
C919        C  0.85460475  0.87693120  0.09449999     0.10800
C920        C  0.86222226  0.87151619  0.12668688    -0.06300
C921        C  0.82808480  0.84775515  0.14425848    -0.17600
C922        C  0.78652487  0.83117058  0.13107383     0.10800
S923        S  0.89237302  0.91067770  0.06962028    -0.32500
S924        S  0.74296205  0.80780824  0.15729986    -0.32600
H925        H  0.70412832  0.82578731  0.14121768     0.28800
H926        H  0.89233527  0.94990729  0.08925082     0.28800
H927        H  0.80877711  0.86227524  0.05632202     0.19400
H928        H  0.83274339  0.84402723  0.16900676     0.19400
C929        C  0.89727156  0.60593859  0.38892893    -0.06400
C930        C  0.92313370  0.62824964  0.41246824    -0.17600
C931        C  0.95380996  0.60328006  0.43171995     0.10800
C932        C  0.95579912  0.55395185  0.42972030    -0.06300
C933        C  0.92938359  0.53155625  0.40666946    -0.17600
C934        C  0.90217476  0.55681124  0.38557147     0.10800
S935        S  0.99172125  0.63680424  0.45654921    -0.32500
S936        S  0.87878859  0.52426048  0.35338035    -0.32600
H937        H  0.88684028  0.55984820  0.33147029     0.28800
H938        H  0.02980150  0.60573334  0.45462556     0.28800
H939        H  0.92076672  0.66582410  0.41527991     0.19400
H940        H  0.93170453  0.49388645  0.40417809     0.19400
C941        C  0.67333757  0.59572160  0.28997839    -0.06400
C942        C  0.67176604  0.63782948  0.30643244    -0.17600
C943        C  0.71068966  0.65355790  0.32319308     0.10800
C944        C  0.75280016  0.62735716  0.32283238    -0.06300
C945        C  0.75424737  0.58518515  0.30626694    -0.17600
C946        C  0.71511462  0.56919521  0.28983253     0.10800
S947        S  0.70355932  0.70608377  0.34573160    -0.32500
S948        S  0.72098267  0.51521123  0.26856238    -0.32600
H949        H  0.68802779  0.52612070  0.24552332     0.28800
H950        H  0.73642610  0.69422291  0.36861396     0.28800
H951        H  0.63930580  0.65749671  0.30740476     0.19400
H952        H  0.78655042  0.56525785  0.30538465     0.19400
C953        C  0.90814810  0.83126112  0.29235751    -0.06400
C954        C  0.86390975  0.83056238  0.30641774    -0.17600
C955        C  0.84823002  0.79113625  0.32261667     0.10800
C956        C  0.87629535  0.75029198  0.32339637    -0.06300
C957        C  0.92107602  0.75148436  0.30977121    -0.17600
C958        C  0.93734783  0.79154451  0.29443285     0.10800
S959        S  0.79329837  0.79625365  0.34311456    -0.32500
S960        S  0.99494271  0.78919123  0.27711241    -0.32600
H961        H  0.98521557  0.81942761  0.25228229     0.28800
H962        H  0.80494661  0.76474685  0.36689018     0.28800
H963        H  0.84214898  0.86161971  0.30576915     0.19400
H964        H  0.94292022  0.72049024  0.31015134     0.19400
loop_ 
_geom_bond_atom_site_label_1 
_geom_bond_atom_site_label_2 
_geom_bond_distance 
_geom_bond_site_symmetry_2 
_ccdc_geom_bond_type 
C1            C2   1.399       .  A
C1            C6   1.405       .  A
C1          C956   1.484       .  S
C2            C3   1.398       .  A
C2            H7   1.084       .  S
C3            C4   1.407       .  A
C3          C944   1.484       .  S
C4            C5   1.413       .  A
C4            H8   1.082       .  S
C5            C6   1.411       .  A
C5          C929   1.501       .  S
C6            H9   1.083       .  S
C10          C11   1.408       .  A
C10          C15   1.402       .  A
C10         C917   1.489       .  S
C11          C12   1.409       .  A
C11          H16   1.083       .  S
C12          C13   1.409       .  A
C12         C896   1.497       .  S
C13          C14   1.406       .  A
C13          H17   1.084       .  S
C14          C15   1.402       .  A
C14         C905   1.489       .  S
C15          H18   1.082       .  S
C19          C20   1.408       .  A
C19          C24   1.407       .  A
C19         C881   1.494       .  S
C20          C21   1.409       .  A
C20          H25   1.084       .  S
C21          C22   1.406       .  A
C21         C857   1.496       .  S
C22          C23   1.406       .  A
C22          H26   1.083       .  S
C23          C24   1.404       .  A
C23         C872   1.487       .  S
C24          H27   1.084       .  S
C28          C29   1.395       .  A
C28          C33   1.404       .  A
C28         C833   1.473       .  S
C29          C30   1.397       .  A
C29          H34   1.084       .  S
C30          C31   1.404       .  A
C30         C845   1.479       .  S
C31          C32   1.410       .  A
C31          H35   1.084       .  S
C32          C33   1.411       .  A
C32         C821   1.495       .  S
C33          H36   1.083       .  S
C37          C74   1.473       .  S
C37         C869   1.486       .  S
C37          N55   1.345       .  A
N38          N55   1.319       .  A
N38          N60   1.317       .  A
N38         Co75   2.060       .  S
C39          C77   1.454       .  S
C39          H84   1.081       .  S
C39          N64   1.332       .  A
H40          C81   1.081       .  S
C41          C45   1.472       .  S
C41          H70   1.080       .  S
C41          N65   1.347       .  A
Co42         N60   2.106       .  S
Co42         N50   2.073   1_455  S
Co42         N82   2.066   1_565  S
Co42         N58   2.104   1_465  S
Co42        Cl86   2.468       .  S
N43          C81   1.343       .  A
N43          N50   1.325       .  A
N43         Co44   2.109       .  S
Co44         N47   2.062       .  S
Co44         N64   2.055   1_565  S
Co44         N51   2.112   1_565  S
Co44        Cl86   2.435   1_655  S
C45         C920   1.490       .  S
C45          N83   1.347       .  A
N46          N53   1.324       .  A
N46          N76   1.322       .  A
N46         Co79   2.072       .  S
N47          N65   1.316       .  A
N47          N83   1.320       .  A
N48          C77   1.358       .  A
N48          N58   1.331       .  A
H49          C74   1.081       .  S
N50          N71   1.322       .  A
N51          N69   1.324       .  A
N51          N56   1.328       .  A
C52          C80   1.448       .  S
C52         C836   1.467       .  S
C52          N56   1.353       .  A
N53          C68   1.344       .  A
N53         Co75   2.109       .  S
C54          C57   1.448       .  S
C54          H88   1.081       .  S
C54          N82   1.334       .  A
C57         C785   1.471       .  S
C57          N78   1.355       .  A
N58          N64   1.316       .  A
N59          C85   1.334       .  A
N59          N61   1.316       .  A
N59         Co75   2.061   1_545  S
N60          C74   1.351       .  A
N61          N89   1.330       .  A
N61         Co79   2.095   1_545  S
H62          C85   1.081       .  S
H63          C80   1.081       .  S
N65         Co79   2.094   1_655  S
N66          N78   1.330       .  A
N66          N82   1.324       .  A
N66         Co75   2.119   1_545  S
C67          C81   1.461       .  S
C67         C953   1.468       .  S
C67          N71   1.345       .  A
C68          C87   1.461       .  S
C68          H72   1.081       .  S
N69          C80   1.336       .  A
N69         Co79   2.070   1_645  S
C73          C85   1.457       .  S
C73         C776   1.484       .  S
C73          N89   1.355       .  A
Co75        Cl86   2.435       .  S
N76          C87   1.345       .  A
C77         C797   1.485       .  S
Co79        Cl86   2.465       .  S
C87         C809   1.468       .  S
C90          C91   1.395       .  A
C90          C95   1.404       .  A
C90         C761   1.481       .  S
C91          C92   1.396       .  A
C91          H96   1.085       .  S
C92          C93   1.407       .  A
C92         C812   1.481       .  S
C93          C94   1.413       .  A
C93          H97   1.083       .  S
C94          C95   1.412       .  A
C94         C749   1.498       .  S
C95          H98   1.083       .  S
C99         C100   1.407       .  A
C99         C104   1.413       .  A
C99         C800   1.502       .  S
C100        C101   1.398       .  A
C100        H105   1.084       .  S
C101        C102   1.406       .  A
C101        C737   1.490       .  S
C102        C103   1.412       .  A
C102        H106   1.083       .  S
C103        C104   1.415       .  A
C103        C725   1.506       .  S
C104        H107   1.082       .  S
C108        C109   1.409       .  A
C108        C113   1.414       .  A
C108        C704   1.497       .  S
C109        C110   1.400       .  A
C109        H114   1.083       .  S
C110        C111   1.393       .  A
C110        C716   1.470       .  S
C111        C112   1.396       .  A
C111        H115   1.085       .  S
C112        C113   1.408       .  A
C112        C788   1.482       .  S
C113        H116   1.082       .  S
C117        C118   1.420       .  A
C117        C122   1.413       .  A
C117        C680   1.508       .  S
C118        C119   1.414       .  A
C118        H123   1.080       .  S
C119        C120   1.403       .  A
C119        C773   1.504       .  S
C120        C121   1.397       .  A
C120        H124   1.084       .  S
C121        C122   1.404       .  A
C121        C692   1.489       .  S
C122        H125   1.083       .  S
C126        C163   1.449       .  S
C126        C941   1.471       .  S
C126        N144   1.355       .  A
N127        N144   1.329       .  A
N127        N149   1.323       .  A
N127       Co164   2.117       .  S
C128        C166   1.464       .  S
C128        H173   1.081       .  S
C128        N153   1.343       .  A
H129        C170   1.082       .  S
C130        C134   1.451       .  S
C130        H159   1.081       .  S
C130        N154   1.335       .  A
Co131       N149   2.065       .  S
Co131       N139   2.093       .  S
Co131       N171   2.097       .  S
Co131       N147   2.062       .  S
Co131      Cl175   2.464       .  S
N132        C170   1.336       .  A
N132        N139   1.317       .  A
N132       Co133   2.069       .  S
Co133       N136   2.107       .  S
Co133       N153   2.107       .  S
Co133       N140   2.070       .  S
Co133      Cl175   2.437       .  S
C134        C848   1.468       .  S
C134        N172   1.353       .  A
N135        N142   1.317       .  A
N135        N165   1.326       .  A
N135       Co168   2.084       .  S
N136        N154   1.323       .  A
N136        N172   1.327       .  A
N137        C166   1.342       .  A
N137        N147   1.320       .  A
H138        C163   1.081       .  S
N139        N160   1.329       .  A
N140        N158   1.316       .  A
N140        N145   1.322       .  A
C141        C169   1.467       .  S
C141        C689   1.485       .  S
C141        N145   1.348       .  A
N142        C157   1.336       .  A
N142       Co164   2.067       .  S
C143        C146   1.467       .  S
C143        H177   1.081       .  S
C143        N171   1.347       .  A
C146        C884   1.481       .  S
C146        N167   1.348       .  A
N147        N153   1.324       .  A
N148        C174   1.344       .  A
N148        N150   1.324       .  A
N148       Co164   2.111       .  S
N149        C163   1.335       .  A
N150        N178   1.321       .  A
N150       Co168   2.070       .  S
H151        C174   1.081       .  S
H152        C169   1.082       .  S
N154       Co168   2.069       .  S
N155        N167   1.322       .  A
N155        N171   1.317       .  A
N155       Co164   2.071       .  S
C156        C170   1.458       .  S
C156        C740   1.484       .  S
C156        N160   1.355       .  A
C157        C176   1.457       .  S
C157        H161   1.082       .  S
N158        C169   1.346       .  A
N158       Co168   2.090       .  S
C162        C174   1.467       .  S
C162        C764   1.475       .  S
C162        N178   1.345       .  A
Co164      Cl175   2.439       .  S
N165        C176   1.351       .  A
C166        C713   1.466       .  S
Co168      Cl175   2.461       .  S
C176        C908   1.473       .  S
C179        C180   1.423       .  A
C179        C184   1.416       .  A
C179        C860   1.501       .  S
C180        C181   1.404       .  A
C180        C665   1.502       .  S
C181        C182   1.404   1_565  A
C181        H186   1.084       .  S
C182        C183   1.421       .  A
C182        C653   1.496       .  S
C183        C184   1.413   1_545  A
C183        C728   1.505       .  S
C184        H185   1.083       .  S
C187        C188   1.419       .  A
C187        C192   1.403   1_655  A
C187        C824   1.494       .  S
C188        C189   1.411   1_655  A
C188        C644   1.499       .  S
C189        C190   1.412       .  A
C189        H194   1.084       .  S
C190        C191   1.421       .  A
C190        C632   1.496       .  S
C191        C192   1.403       .  A
C191        C752   1.497       .  S
C192        H193   1.084   1_556  S
C195        C196   1.422       .  A
C195        C200   1.402   1_655  A
C195        C932   1.497       .  S
C196        C197   1.417   1_655  A
C196        C617   1.502       .  S
C197        C198   1.415       .  A
C197        H202   1.084       .  S
C198        C199   1.419       .  A
C198        C608   1.502       .  S
C199        C200   1.402       .  A
C199        C701   1.492       .  S
C200        H201   1.085       .  S
C203        C204   1.419       .  A
C203        C208   1.404       .  A
C203        C593   1.495       .  S
C204        C205   1.417       .  A
C204        C893   1.498       .  S
C205        C206   1.413   1_565  A
C205        H210   1.084   1_556  S
C206        C207   1.418       .  A
C206        C677   1.503       .  S
C207        C208   1.404   1_545  A
C207        C581   1.491       .  S
C208        H209   1.085       .  S
C211        C212   1.394       .  A
C211        C216   1.404       .  A
C211        C569   1.481       .  S
C212        C213   1.396       .  A
C212        H217   1.085       .  S
C213        C214   1.408       .  A
C213        C557   1.481       .  S
C214        C215   1.414       .  A
C214        H218   1.082       .  S
C215        C216   1.413       .  A
C215        C596   1.502       .  S
C216        H219   1.083       .  S
C220        C221   1.413       .  A
C220        C225   1.407       .  A
C220        C545   1.501       .  S
C221        C222   1.414       .  A
C221        H226   1.082       .  S
C222        C223   1.410       .  A
C222        C641   1.503       .  S
C223        C224   1.404       .  A
C223        H227   1.083       .  S
C224        C225   1.401       .  A
C224        C536   1.491       .  S
C225        H228   1.083       .  S
C229        C230   1.410       .  A
C229        C234   1.413       .  A
C229        C584   1.497       .  S
C230        C231   1.403       .  A
C230        H235   1.082       .  S
C231        C232   1.395       .  A
C231        C521   1.473       .  S
C232        C233   1.394       .  A
C232        H236   1.085       .  S
C233        C234   1.404       .  A
C233        C512   1.479       .  S
C234        H237   1.083       .  S
C238        C239   1.410       .  A
C238        C243   1.404       .  A
C238        C500   1.493       .  S
C239        C240   1.413       .  A
C239        H244   1.081       .  S
C240        C241   1.409       .  A
C240        C629   1.505       .  S
C241        C242   1.404       .  A
C241        H245   1.082       .  S
C242        C243   1.399       .  A
C242        C485   1.490       .  S
C243        H246   1.083       .  S
C247        C248   1.408       .  A
C247        C252   1.411       .  A
C247        C605   1.501       .  S
C248        C249   1.408       .  A
C248        H253   1.083       .  S
C249        C250   1.404       .  A
C249        C464   1.488       .  S
C250        C251   1.401       .  A
C250        H254   1.084       .  S
C251        C252   1.406       .  A
C251        C473   1.484       .  S
C252        H255   1.083       .  S
C256        C257   1.396       .  A
C256        C261   1.404       .  A
C256        C437   1.478       .  S
C257        C258   1.395       .  A
C257        H262   1.084       .  S
C258        C259   1.404       .  A
C258        C449   1.479       .  S
C259        C260   1.411       .  A
C259        H263   1.083       .  S
C260        C261   1.410       .  A
C260        C656   1.495       .  S
C261        H264   1.083       .  S
C265        C302   1.464       .  S
C265        C488   1.473       .  S
C265        N283   1.347       .  A
N266        N283   1.319       .  A
N266        N288   1.317       .  A
N266       Co303   2.067       .  S
C267        C305   1.455       .  S
C267        H312   1.081       .  S
C267        N292   1.334       .  A
H268        C309   1.081       .  S
C269        C273   1.473       .  S
C269        H298   1.081       .  S
C269        N293   1.348       .  A
Co270       N288   2.086       .  S
Co270       N278   2.058       .  S
Co270       N310   2.060       .  S
Co270       N286   2.096       .  S
Co270      Cl314   2.468       .  S
N271        C309   1.346       .  A
N271        N278   1.322       .  A
N271       Co272   2.113       .  S
Co272       N275   2.059       .  S
Co272       N292   2.064       .  S
Co272       N279   2.107       .  S
Co272      Cl314   2.430       .  S
C273        C425   1.489       .  S
C273        N311   1.346       .  A
N274        N281   1.323       .  A
N274        N304   1.321       .  A
N274       Co307   2.063       .  S
N275        N293   1.316       .  A
N275        N311   1.319       .  A
N276        C305   1.357       .  A
N276        N286   1.330       .  A
H277        C302   1.081       .  S
N278        N299   1.319       .  A
N279        N297   1.323       .  A
N279        N284   1.326       .  A
C280        C308   1.450       .  S
C280        C440   1.465       .  S
C280        N284   1.352       .  A
N281        C296   1.344       .  A
N281       Co303   2.107       .  S
C282        C285   1.450       .  S
C282        H316   1.081       .  S
C282        N310   1.334       .  A
C285        C509   1.469       .  S
C285        N306   1.354       .  A
N286        N292   1.316       .  A
N287        C313   1.335       .  A
N287        N289   1.317       .  A
N287       Co303   2.066       .  S
N288        C302   1.345       .  A
N289        N317   1.330       .  A
N289       Co307   2.100       .  S
H290        C313   1.082       .  S
H291        C308   1.082       .  S
N293       Co307   2.097       .  S
N294        N306   1.327       .  A
N294        N310   1.323       .  A
N294       Co303   2.112       .  S
C295        C309   1.469       .  S
C295        C560   1.475       .  S
C295        N299   1.342       .  A
C296        C315   1.462       .  S
C296        H300   1.081       .  S
N297        C308   1.335       .  A
N297       Co307   2.065       .  S
C301        C313   1.459       .  S
C301        C476   1.487       .  S
C301        N317   1.356       .  A
Co303      Cl314   2.429       .  S
N304        C315   1.343       .  A
C305        C548   1.485       .  S
Co307      Cl314   2.465       .  S
C315        C413   1.464       .  S
C318        C319   1.403       .  A
C318        C323   1.411       .  A
C318        C428   1.490       .  S
C319        C320   1.398       .  A
C319        H324   1.084       .  S
C320        C321   1.403       .  A
C320        C401   1.483       .  S
C321        C322   1.409       .  A
C321        H325   1.084       .  S
C322        C323   1.411       .  A
C322        C620   1.496       .  S
C323        H326   1.083       .  S
C327        C328   1.392       .  A
C327        C332   1.403       .  A
C327        C392   1.472       .  S
C328        C329   1.395       .  A
C328        H333   1.085       .  S
C329        C330   1.405       .  A
C329        C416   1.477       .  S
C330        C331   1.413       .  A
C330        H334   1.083       .  S
C331        C332   1.413       .  A
C331        C668   1.499       .  S
C332        H335   1.083       .  S
C336        C373   1.451       .  S
C336        C572   1.468       .  S
C336        N354   1.354       .  A
N337        N354   1.327       .  A
N337        N359   1.323       .  A
N337       Co374   2.108   1_655  S
C338        C376   1.463       .  S
C338        H383   1.081       .  S
C338        N363   1.342       .  A
H339        C380   1.082       .  S
C340        C344   1.450       .  S
C340        H369   1.082       .  S
C340        N364   1.333       .  A
Co341       N359   2.065   1_455  S
Co341       N349   2.094   1_465  S
Co341       N381   2.089       .  S
Co341       N357   2.063   1_565  S
Co341      Cl385   2.471       .  S
N342        C380   1.334       .  A
N342        N349   1.317       .  A
N342       Co343   2.066   1_655  S
Co343       N346   2.108   1_455  S
Co343       N363   2.100       .  S
Co343       N350   2.065       .  S
Co343      Cl385   2.425   1_545  S
C344        C452   1.469       .  S
C344        N382   1.354       .  A
N345        N352   1.317       .  A
N345        N375   1.329       .  A
N345       Co378   2.092   1_655  S
N346        N364   1.322       .  A
N346        N382   1.327       .  A
N347        C376   1.344       .  A
N347        N357   1.321       .  A
H348        C373   1.081       .  S
N349        N370   1.328       .  A
N350        N368   1.317       .  A
N350        N355   1.320       .  A
C351        C379   1.467       .  S
C351        C461   1.480       .  S
C351        N355   1.345       .  A
N352        C367   1.334       .  A
N352       Co374   2.069   1_655  S
C353        C356   1.467       .  S
C353        H387   1.082       .  S
C353        N381   1.346       .  A
C356        C497   1.485       .  S
C356        N377   1.348       .  A
N357        N363   1.322       .  A
N358        C384   1.344       .  A
N358        N360   1.323       .  A
N358       Co374   2.108       .  S
N359        C373   1.335       .  A
N360        N388   1.321       .  A
N360       Co378   2.063       .  S
H361        C384   1.081       .  S
H362        C379   1.081       .  S
N364       Co378   2.061   1_645  S
N365        N377   1.321       .  A
N365        N381   1.317       .  A
N365       Co374   2.070       .  S
C366        C380   1.458       .  S
C366        C533   1.480       .  S
C366        N370   1.355       .  A
C367        C386   1.458       .  S
C367        H371   1.082       .  S
N368        C379   1.347       .  A
N368       Co378   2.094   1_545  S
C372        C384   1.463       .  S
C372        C389   1.466       .  S
C372        N388   1.343       .  A
Co374      Cl385   2.427       .  S
N375        C386   1.354       .  A
C376        C524   1.468       .  S
Co378      Cl385   2.471       .  S
C386        C404   1.481       .  S
C389        C390   1.403       .  A
C389        C394   1.409       .  A
C390        C391   1.399       .  A
C390        H399   1.084       .  S
C391        C392   1.410       .  A
C391        S395   1.804       .  S
C392        C393   1.404       .  A
C393        C394   1.397       .  A
C393        H400   1.084       .  S
C394        S396   1.804       .  S
S395        H398   1.406       .  S
S396        H397   1.406       .  S
C401        C402   1.407       .  A
C401        C406   1.414       .  A
C402        C403   1.407       .  A
C402        H411   1.084       .  S
C403        C404   1.413       .  A
C403        S407   1.803       .  S
C404        C405   1.403       .  A
C405        C406   1.393       .  A
C405        H412   1.084       .  S
C406        S408   1.805       .  S
S407        H410   1.406       .  S
S408        H409   1.407       .  S
C413        C414   1.398       .  A
C413        C418   1.412       .  A
C414        C415   1.397       .  A
C414        H423   1.084       .  S
C415        C416   1.416       .  A
C415        S419   1.805       .  S
C416        C417   1.402       .  A
C417        C418   1.399       .  A
C417        H424   1.084       .  S
C418        S420   1.805       .  S
S419        H422   1.407       .  S
S420        H421   1.406       .  S
C425        C426   1.405       .  A
C425        C430   1.418       .  A
C426        C427   1.400       .  A
C426        H435   1.083       .  S
C427        C428   1.415       .  A
C427        S431   1.812       .  S
C428        C429   1.405       .  A
C429        C430   1.406       .  A
C429        H436   1.084       .  S
C430        S432   1.797       .  S
S431        H434   1.407       .  S
S432        H433   1.407       .  S
C437        C438   1.403       .  A
C437        C442   1.416       .  A
C438        C439   1.399       .  A
C438        H447   1.084       .  S
C439        C440   1.413       .  A
C439        S443   1.804       .  S
C440        C441   1.398       .  A
C441        C442   1.396       .  A
C441        H448   1.084       .  S
C442        S444   1.805       .  S
S443        H446   1.406       .  S
S444        H445   1.407       .  S
C449        C450   1.401       .  A
C449        C454   1.417       .  A
C450        C451   1.398       .  A
C450        H459   1.084       .  S
C451        C452   1.414       .  A
C451        S455   1.804       .  S
C452        C453   1.399       .  A
C453        C454   1.398       .  A
C453        H460   1.084       .  S
C454        S456   1.805       .  S
S455        H458   1.407       .  S
S456        H457   1.406       .  S
C461        C462   1.402       .  A
C461        C466   1.416       .  A
C462        C463   1.405       .  A
C462        H471   1.084       .  S
C463        C464   1.417       .  A
C463        S467   1.803       .  S
C464        C465   1.402       .  A
C465        C466   1.399       .  A
C465        H472   1.082       .  S
C466        S468   1.811       .  S
S467        H470   1.406       .  S
S468        H469   1.406       .  S
C473        C474   1.406       .  A
C473        C478   1.412       .  A
C474        C475   1.409       .  A
C474        H483   1.084       .  S
C475        C476   1.415       .  A
C475        S479   1.802       .  S
C476        C477   1.405       .  A
C477        C478   1.395       .  A
C477        H484   1.083       .  S
C478        S480   1.806       .  S
S479        H482   1.405       .  S
S480        H481   1.406       .  S
C485        C486   1.404       .  A
C485        C490   1.419       .  A
C486        C487   1.392       .  A
C486        H495   1.083       .  S
C487        C488   1.413       .  A
C487        S491   1.806       .  S
C488        C489   1.401       .  A
C489        C490   1.405       .  A
C489        H496   1.084       .  S
C490        S492   1.804       .  S
S491        H494   1.407       .  S
S492        H493   1.407       .  S
C497        C498   1.408       .  A
C497        C502   1.413       .  A
C498        C499   1.408       .  A
C498        H507   1.083       .  S
C499        C500   1.416       .  A
C499        S503   1.803       .  S
C500        C501   1.406       .  A
C501        C502   1.394       .  A
C501        H508   1.084       .  S
C502        S504   1.804       .  S
S503        H506   1.406       .  S
S504        H505   1.406       .  S
C509        C510   1.399       .  A
C509        C514   1.414       .  A
C510        C511   1.397       .  A
C510        H519   1.084       .  S
C511        C512   1.417       .  A
C511        S515   1.806       .  S
C512        C513   1.401       .  A
C513        C514   1.398       .  A
C513        H520   1.084       .  S
C514        S516   1.804       .  S
S515        H518   1.407       .  S
S516        H517   1.407       .  S
C521        C522   1.404       .  A
C521        C526   1.411       .  A
C522        C523   1.395       .  A
C522        H531   1.084       .  S
C523        C524   1.410       .  A
C523        S527   1.803       .  S
C524        C525   1.403       .  A
C525        C526   1.397       .  A
C525        H532   1.084       .  S
C526        S528   1.804       .  S
S527        H530   1.407       .  S
S528        H529   1.406       .  S
C533        C534   1.404       .  A
C533        C538   1.411       .  A
C534        C535   1.397       .  A
C534        H543   1.084       .  S
C535        C536   1.416       .  A
C535        S539   1.805       .  S
C536        C537   1.409       .  A
C537        C538   1.406       .  A
C537        H544   1.084       .  S
C538        S540   1.802       .  S
S539        H542   1.407       .  S
S540        H541   1.404       .  S
C545        C546   1.408       .  A
C545        C550   1.419       .  A
C546        C547   1.397       .  A
C546        H555   1.083       .  S
C547        C548   1.413       .  A
C547        S551   1.805       .  S
C548        C549   1.404       .  A
C549        C550   1.407       .  A
C549        H556   1.084       .  S
C550        S552   1.800       .  S
S551        H554   1.407       .  S
S552        H553   1.407       .  S
C557        C558   1.400       .  A
C557        C562   1.416       .  A
C558        C559   1.398       .  A
C558        H567   1.084       .  S
C559        C560   1.416       .  A
C559        S563   1.804       .  S
C560        C561   1.400       .  A
C561        C562   1.399       .  A
C561        H568   1.084       .  S
C562        S564   1.802       .  S
S563        H566   1.407       .  S
S564        H565   1.406       .  S
C569        C570   1.402       .  A
C569        C574   1.417       .  A
C570        C571   1.399       .  A
C570        H579   1.084       .  S
C571        C572   1.413       .  A
C571        S575   1.804       .  S
C572        C573   1.398       .  A
C573        C574   1.396       .  A
C573        H580   1.084       .  S
C574        S576   1.803       .  S
S575        H578   1.406       .  S
S576        H577   1.406       .  S
C581        C582   1.404       .  A
C581        C586   1.413       .  A
C582        C583   1.402       .  A
C582        H591   1.083       .  S
C583        C584   1.420       .  A
C583        S587   1.802       .  S
C584        C585   1.407       .  A
C585        C586   1.396       .  A
C585        H592   1.083       .  S
C586        S588   1.802       .  S
S587        H590   1.407       .  S
S588        H589   1.407       .  S
C593        C594   1.405       .  A
C593        C598   1.413       .  A
C594        C595   1.407       .  A
C594        H603   1.084       .  S
C595        C596   1.422       .  A
C595        S599   1.803       .  S
C596        C597   1.407       .  A
C597        C598   1.398       .  A
C597        H604   1.083       .  S
C598        S600   1.802   1_565  S
S599        H602   1.407       .  S
S600        H601   1.406       .  S
C605        C606   1.406       .  A
C605        C610   1.418       .  A
C606        C607   1.400       .  A
C606        H615   1.083       .  S
C607        C608   1.416       .  A
C607        S611   1.801       .  S
C608        C609   1.407       .  A
C609        C610   1.409       .  A
C609        H616   1.082       .  S
C610        S612   1.808       .  S
S611        H614   1.405       .  S
S612        H613   1.407       .  S
C617        C618   1.409       .  A
C617        C622   1.417       .  A
C618        C619   1.405       .  A
C618        H627   1.083       .  S
C619        C620   1.416       .  A
C619        S623   1.802       .  S
C620        C621   1.406       .  A
C621        C622   1.399       .  A
C621        H628   1.083       .  S
C622        S624   1.801   1_655  S
S623        H626   1.407       .  S
S624        H625   1.404       .  S
C629        C630   1.411       .  A
C629        C634   1.422       .  A
C630        C631   1.400       .  A
C630        H639   1.082       .  S
C631        C632   1.412       .  A
C631        S635   1.802       .  S
C632        C633   1.404       .  A
C633        C634   1.403       .  A
C633        H640   1.084       .  S
C634        S636   1.803       .  S
S635        H638   1.407       .  S
S636        H637   1.407       .  S
C641        C642   1.409       .  A
C641        C646   1.418       .  A
C642        C643   1.402       .  A
C642        H651   1.083       .  S
C643        C644   1.415       .  A
C643        S647   1.804   1_655  S
C644        C645   1.406       .  A
C645        C646   1.404       .  A
C645        H652   1.083       .  S
C646        S648   1.800       .  S
S647        H650   1.407       .  S
S648        H649   1.407       .  S
C653        C654   1.406       .  A
C653        C658   1.416       .  A
C654        C655   1.402       .  A
C654        H663   1.083       .  S
C655        C656   1.419       .  A
C655        S659   1.804       .  S
C656        C657   1.406       .  A
C657        C658   1.397       .  A
C657        H664   1.083       .  S
C658        S660   1.805   1_545  S
S659        H662   1.407       .  S
S660        H661   1.407       .  S
C665        C666   1.406       .  A
C665        C670   1.417       .  A
C666        C667   1.399       .  A
C666        H675   1.084       .  S
C667        C668   1.418       .  A
C667        S671   1.805       .  S
C668        C669   1.409       .  A
C669        C670   1.405       .  A
C669        H676   1.083       .  S
C670        S672   1.801       .  S
S671        H674   1.407       .  S
S672        H673   1.406       .  S
C677        C678   1.405       .  A
C677        C682   1.415   1_556  A
C678        C679   1.403   1_556  A
C678        H687   1.083       .  S
C679        C680   1.422       .  A
C679        S683   1.803   1_554  S
C680        C681   1.409       .  A
C681        C682   1.405       .  A
C681        H688   1.082       .  S
C682        S684   1.800   1_545  S
S683        H686   1.407       .  S
S684        H685   1.407   1_554  S
C689        C690   1.408       .  A
C689        C694   1.413       .  A
C690        C691   1.407       .  A
C690        H699   1.083       .  S
C691        C692   1.414       .  A
C691        S695   1.802       .  S
C692        C693   1.404       .  A
C693        C694   1.394       .  A
C693        H700   1.084       .  S
C694        S696   1.802       .  S
S695        H698   1.406       .  S
S696        H697   1.405       .  S
C701        C702   1.403       .  A
C701        C706   1.410       .  A
C702        C703   1.398       .  A
C702        H711   1.084       .  S
C703        C704   1.418       .  A
C703        S707   1.804       .  S
C704        C705   1.411       .  A
C705        C706   1.406       .  A
C705        H712   1.082       .  S
C706        S708   1.805       .  S
S707        H710   1.407       .  S
S708        H709   1.406       .  S
C713        C714   1.403       .  A
C713        C718   1.410       .  A
C714        C715   1.400       .  A
C714        H723   1.083       .  S
C715        C716   1.409       .  A
C715        S719   1.807       .  S
C716        C717   1.402       .  A
C717        C718   1.395       .  A
C717        H724   1.084       .  S
C718        S720   1.801       .  S
S719        H722   1.407       .  S
S720        H721   1.407       .  S
C725        C726   1.410       .  A
C725        C730   1.419       .  A
C726        C727   1.404       .  A
C726        H735   1.083       .  S
C727        C728   1.416       .  A
C727        S731   1.804       .  S
C728        C729   1.407       .  A
C729        C730   1.405       .  A
C729        H736   1.084       .  S
C730        S732   1.802       .  S
S731        H734   1.407       .  S
S732        H733   1.407       .  S
C737        C738   1.409       .  A
C737        C742   1.415       .  A
C738        C739   1.409       .  A
C738        H747   1.084       .  S
C739        C740   1.413       .  A
C739        S743   1.804       .  S
C740        C741   1.404       .  A
C741        C742   1.396       .  A
C741        H748   1.084       .  S
C742        S744   1.805       .  S
S743        H746   1.406       .  S
S744        H745   1.407       .  S
C749        C750   1.406       .  A
C749        C754   1.419       .  A
C750        C751   1.398       .  A
C750        H759   1.083       .  S
C751        C752   1.418   1_554  A
C751        S755   1.808       .  S
C752        C753   1.406       .  A
C753        C754   1.404   1_556  A
C753        H760   1.083       .  S
C754        S756   1.803       .  S
S755        H758   1.404       .  S
S756        H757   1.407       .  S
C761        C762   1.406       .  A
C761        C766   1.412       .  A
C762        C763   1.397       .  A
C762        H771   1.084       .  S
C763        C764   1.410       .  A
C763        S767   1.803       .  S
C764        C765   1.405       .  A
C765        C766   1.400       .  A
C765        H772   1.084       .  S
C766        S768   1.804       .  S
S767        H770   1.407       .  S
S768        H769   1.406       .  S
C773        C774   1.410       .  A
C773        C778   1.420       .  A
C774        C775   1.392       .  A
C774        H783   1.083       .  S
C775        C776   1.409       .  A
C775        S779   1.806       .  S
C776        C777   1.408       .  A
C777        C778   1.411       .  A
C777        H784   1.084       .  S
C778        S780   1.802       .  S
S779        H782   1.407       .  S
S780        H781   1.406       .  S
C785        C786   1.399       .  A
C785        C790   1.413       .  A
C786        C787   1.400       .  A
C786        H795   1.084       .  S
C787        C788   1.417       .  A
C787        S791   1.805       .  S
C788        C789   1.403       .  A
C789        C790   1.399       .  A
C789        H796   1.084       .  S
C790        S792   1.805       .  S
S791        H794   1.406       .  S
S792        H793   1.407       .  S
C797        C798   1.406       .  A
C797        C802   1.412       .  A
C798        C799   1.413       .  A
C798        H807   1.082       .  S
C799        C800   1.419       .  A
C799        S803   1.805       .  S
C800        C801   1.408       .  A
C801        C802   1.394       .  A
C801        H808   1.083       .  S
C802        S804   1.806       .  S
S803        H806   1.407       .  S
S804        H805   1.407       .  S
C809        C810   1.398       .  A
C809        C814   1.412       .  A
C810        C811   1.397       .  A
C810        H819   1.084       .  S
C811        C812   1.417       .  A
C811        S815   1.805       .  S
C812        C813   1.403       .  A
C813        C814   1.401       .  A
C813        H820   1.084       .  S
C814        S816   1.805       .  S
S815        H818   1.407       .  S
S816        H817   1.406       .  S
C821        C822   1.406       .  A
C821        C826   1.418       .  A
C822        C823   1.398       .  A
C822        H831   1.083       .  S
C823        C824   1.415   1_554  A
C823        S827   1.805       .  S
C824        C825   1.405       .  A
C825        C826   1.402   1_556  A
C825        H832   1.083       .  S
C826        S828   1.803       .  S
S827        H830   1.407   1_554  S
S828        H829   1.407       .  S
C833        C834   1.402       .  A
C833        C838   1.412       .  A
C834        C835   1.402       .  A
C834        H843   1.084       .  S
C835        C836   1.412       .  A
C835        S839   1.805       .  S
C836        C837   1.399       .  A
C837        C838   1.397       .  A
C837        H844   1.084       .  S
C838        S840   1.805       .  S
S839        H842   1.405       .  S
S840        H841   1.405       .  S
C845        C846   1.403       .  A
C845        C850   1.415       .  A
C846        C847   1.397       .  A
C846        H855   1.084       .  S
C847        C848   1.412       .  A
C847        S851   1.805       .  S
C848        C849   1.400       .  A
C849        C850   1.400       .  A
C849        H856   1.084       .  S
C850        S852   1.804       .  S
S851        H854   1.407       .  S
S852        H853   1.407       .  S
C857        C858   1.406       .  A
C857        C862   1.414       .  A
C858        C859   1.401       .  A
C858        H867   1.084       .  S
C859        C860   1.419       .  A
C859        S863   1.806       .  S
C860        C861   1.408       .  A
C861        C862   1.406       .  A
C861        H868   1.082       .  S
C862        S864   1.807       .  S
S863        H866   1.404       .  S
S864        H865   1.407       .  S
C869        C870   1.406       .  A
C869        C874   1.413       .  A
C870        C871   1.396       .  A
C870        H879   1.084       .  S
C871        C872   1.413       .  A
C871        S875   1.805       .  S
C872        C873   1.408       .  A
C873        C874   1.408       .  A
C873        H880   1.084       .  S
C874        S876   1.801       .  S
S875        H878   1.407       .  S
S876        H877   1.405       .  S
C881        C882   1.405       .  A
C881        C886   1.418       .  A
C882        C883   1.398       .  A
C882        H891   1.084       .  S
C883        C884   1.414       .  A
C883        S887   1.805       .  S
C884        C885   1.403       .  A
C885        C886   1.408       .  A
C885        H892   1.084       .  S
C886        S888   1.803       .  S
S887        H890   1.407       .  S
S888        H889   1.407       .  S
C893        C894   1.407       .  A
C893        C898   1.414   1_556  A
C894        C895   1.405   1_556  A
C894        H903   1.083       .  S
C895        C896   1.418       .  A
C895        S899   1.803   1_554  S
C896        C897   1.406       .  A
C897        C898   1.399       .  A
C897        H904   1.083       .  S
C898        S900   1.801       .  S
S899        H902   1.407       .  S
S900        H901   1.407   1_554  S
C905        C906   1.405       .  A
C905        C910   1.418       .  A
C906        C907   1.397       .  A
C906        H915   1.084       .  S
C907        C908   1.413       .  A
C907        S911   1.806       .  S
C908        C909   1.400       .  A
C909        C910   1.403       .  A
C909        H916   1.084       .  S
C910        S912   1.803       .  S
S911        H914   1.406       .  S
S912        H913   1.406       .  S
C917        C918   1.405       .  A
C917        C922   1.416       .  A
C918        C919   1.403       .  A
C918        H927   1.084       .  S
C919        C920   1.418       .  A
C919        S923   1.798       .  S
C920        C921   1.406       .  A
C921        C922   1.398       .  A
C921        H928   1.084       .  S
C922        S924   1.805       .  S
S923        H926   1.407       .  S
S924        H925   1.407       .  S
C929        C930   1.411       .  A
C929        C934   1.419       .  A
C930        C931   1.404       .  A
C930        H939   1.083       .  S
C931        C932   1.414       .  A
C931        S935   1.801       .  S
C932        C933   1.405       .  A
C933        C934   1.400       .  A
C933        H940   1.084       .  S
C934        S936   1.804       .  S
S935        H938   1.406   1_655  S
S936        H937   1.407       .  S
C941        C942   1.400       .  A
C941        C946   1.413       .  A
C942        C943   1.401       .  A
C942        H951   1.084       .  S
C943        C944   1.416       .  A
C943        S947   1.803       .  S
C944        C945   1.404       .  A
C945        C946   1.401       .  A
C945        H952   1.084       .  S
C946        S948   1.805       .  S
S947        H950   1.406       .  S
S948        H949   1.406       .  S
C953        C954   1.398       .  A
C953        C958   1.412       .  A
C954        C955   1.398       .  A
C954        H963   1.084       .  S
C955        C956   1.417       .  A
C955        S959   1.803       .  S
C956        C957   1.404       .  A
C957        C958   1.400       .  A
C957        H964   1.084       .  S
C958        S960   1.804       .  S
S959        H962   1.407       .  S
S960        H961   1.406       .  S
