geometry optimzed in LAMMPS
_audit_creation_date              2020-12-01 
_audit_creation_method            'lammps2cif' 
_symmetry_space_group_name_H-M    'P1' 
_symmetry_Int_Tables_number       1 
_symmetry_cell_setting            triclinic 
loop_ 
_symmetry_equiv_pos_as_xyz 
  x,y,z 
_cell_length_a                    46.80523623 
_cell_length_b                    46.745550654332696 
_cell_length_c                    90.7498675693474 
_cell_angle_alpha                 89.99103642288442 
_cell_angle_beta                  89.98984072050833 
_cell_angle_gamma                 90.05066269263033 
loop_ 
_atom_site_label 
_atom_site_type_symbol 
_atom_site_fract_x 
_atom_site_fract_y 
_atom_site_fract_z 
_atom_site_charge 
O1          O  0.86295667  0.65796789  0.81437672    -0.57500
C2          C  0.83695022  0.68735483  0.77356492     0.75100
O3          O  0.93072550  0.66442544  0.78196909    -0.58700
C4          C  0.87915126  0.63858036  0.81940226     0.75100
C5          C  0.87505560  0.60044296  0.77375275     0.77500
Cd6        Cd  0.88043734  0.65457900  0.78865952     1.37500
O7          O  0.83379417  0.67968213  0.78685762    -0.57500
O8          O  0.85704595  0.60889446  0.78316425    -0.56300
C9          C  0.93158320  0.68933068  0.78743027     0.77400
O10         O  0.89554190  0.61741340  0.77111828    -0.58700
O11         O  0.86012623  0.68007737  0.76749891    -0.57200
O12         O  0.89585205  0.62687108  0.81027246    -0.57200
O13         O  0.90873300  0.69800644  0.79334457    -0.56300
O14         O  0.17709486  0.84762779  0.81167295    -0.57500
C15         C  0.20194899  0.81649806  0.77084497     0.75100
O16         O  0.10884932  0.83631931  0.77895849    -0.58700
C17         C  0.15753799  0.86303062  0.81716130     0.75100
C18         C  0.15965756  0.90437551  0.77168464     0.77500
Cd19       Cd  0.15822549  0.84914340  0.78604573     1.37500
O20         O  0.20526011  0.82489134  0.78400333    -0.57500
O21         O  0.18021096  0.89560374  0.77952503    -0.56300
C22         C  0.10888635  0.81203011  0.78512571     0.77400
O23         O  0.13891213  0.88720756  0.77025837    -0.58700
O24         O  0.17863225  0.82346441  0.76477851    -0.57200
O25         O  0.13934472  0.87264584  0.80816890    -0.57200
O26         O  0.13197450  0.80473907  0.79129013    -0.56300
O27         O  0.69845977  0.82798198  0.71053065    -0.57500
C28         C  0.64464149  0.86367783  0.67816588     0.75100
O29         O  0.61898148  0.80817250  0.70183204    -0.58700
C30         C  0.69331677  0.81339045  0.72199446     0.75100
C31         C  0.65307789  0.90404739  0.72295214     0.77500
Cd32       Cd  0.64924006  0.84874795  0.70886675     1.37500
O33         O  0.66350033  0.84627387  0.68264596    -0.57500
O34         O  0.67200224  0.89542651  0.71404699    -0.56300
C35         C  0.59929428  0.81283962  0.71108834     0.77400
O36         O  0.63311388  0.88661674  0.72576984    -0.58700
O37         O  0.62806131  0.87374360  0.68785215    -0.57200
O38         O  0.66862975  0.81606620  0.72743471    -0.57200
O39         O  0.60260287  0.83449200  0.71930429    -0.56300
O40         O  0.39853931  0.60326951  0.71820336    -0.57500
C41         C  0.42848376  0.68195235  0.70924781     0.75100
O42         O  0.35716646  0.64278152  0.68040070    -0.58700
C43         C  0.37511078  0.58980971  0.71896181     0.75100
C44         C  0.33835564  0.68100865  0.72003920     0.77500
Cd45       Cd  0.37969740  0.64531490  0.70516751     1.37500
O46         O  0.42778809  0.65705604  0.71472491    -0.57500
O47         O  0.35703456  0.66690204  0.72700019    -0.56300
C48         C  0.37896574  0.63306476  0.67383209     0.77400
O49         O  0.33838676  0.67814006  0.70615756    -0.58700
O50         O  0.40716646  0.68925369  0.70158385    -0.57200
O51         O  0.35366770  0.60220512  0.71337970    -0.57200
O52         O  0.40043121  0.62807100  0.68186283    -0.56300
O53         O  0.85618155  0.35387193  0.68749046    -0.57500
C54         C  0.83149543  0.31886533  0.72601402     0.75100
O55         O  0.92736998  0.33736404  0.71723557    -0.58700
C56         C  0.87925890  0.36097178  0.68119013     0.75100
C57         C  0.87506675  0.40531739  0.72632950     0.77500
Cd58       Cd  0.87719807  0.35006227  0.71234391     1.37500
O59         O  0.83176778  0.32369629  0.71228302    -0.57500
O60         O  0.85902101  0.39871511  0.71566066    -0.56300
C61         C  0.92462358  0.31129819  0.71367847     0.77400
O62         O  0.89264958  0.38634752  0.73043293    -0.58700
O63         O  0.85220830  0.32880350  0.73336384    -0.57200
O64         O  0.90082103  0.36381325  0.68945176    -0.57200
O65         O  0.89964541  0.30308083  0.71050334    -0.56300
O66         O  0.19268018  0.17540200  0.70448559    -0.57500
C67         C  0.14588839  0.13372600  0.67231012     0.75100
O68         O  0.13268600  0.11148243  0.72139258    -0.58700
C69         C  0.18959891  0.18309742  0.71777350     0.75100
C70         C  0.09699848  0.18350088  0.70567802     0.77500
Cd71       Cd  0.14712155  0.14809777  0.70340235     1.37500
O72         O  0.16676416  0.14705146  0.67798189    -0.57500
O73         O  0.11900014  0.19136564  0.69866560    -0.56300
C74         C  0.15203540  0.09368022  0.71818264     0.77400
O75         O  0.09821005  0.15916107  0.71176257    -0.58700
O76         O  0.12578333  0.12726404  0.68101603    -0.57200
O77         O  0.16761176  0.17391835  0.72429650    -0.57200
O78         O  0.16938089  0.10114950  0.70820742    -0.56300
O79         O  0.39746605  0.38097354  0.76767684    -0.57500
C80         C  0.42601697  0.30398116  0.78171444     0.75100
O81         O  0.35621547  0.34632586  0.80783074    -0.58700
C82         C  0.37489725  0.39585021  0.76748857     0.75100
C83         C  0.33595223  0.30622842  0.76894790     0.77500
Cd84       Cd  0.37797916  0.34214776  0.78298945     1.37500
O85         O  0.42564524  0.32701028  0.77437080    -0.57500
O86         O  0.35625876  0.31747439  0.76179713    -0.56300
C87         C  0.37698394  0.35959672  0.81357888     0.77400
O88         O  0.33447890  0.31246599  0.78249950    -0.58700
O89         O  0.40457700  0.29924339  0.78981536    -0.57200
O90         O  0.35379918  0.38585869  0.77454981    -0.57200
O91         O  0.39768971  0.36511690  0.80508063    -0.56300
O92         O  0.63677693  0.11018136  0.77377990    -0.57500
C93         C  0.60084048  0.18005351  0.78837697     0.75100
O94         O  0.66988089  0.15520195  0.81579590    -0.58700
C95         C  0.65825981  0.09406584  0.77529764     0.75100
C96         C  0.69242939  0.18536311  0.77519995     0.77500
Cd97       Cd  0.65306118  0.14814278  0.79024123     1.37500
O98         O  0.62192414  0.18912408  0.79574791    -0.57500
O99         O  0.66809850  0.17929719  0.77007826    -0.56300
C100        C  0.65441665  0.13561956  0.82122490     0.77400
O101        O  0.69929336  0.17303618  0.78711635    -0.58700
O102        O  0.60365662  0.15572414  0.78246899    -0.57200
O103        O  0.67798526  0.10313959  0.78362802    -0.57200
O104        O  0.63893180  0.12185408  0.81229193    -0.56300
O105        O  0.16532870  0.36340723  0.02760215    -0.57500
C106        C  0.08573999  0.33350337  0.03321139     0.75100
O107        O  0.11944042  0.40270805  0.06294291    -0.58700
C108        C  0.17597425  0.38701748  0.02362930     0.75100
C109        C  0.08408435  0.42621658  0.02494430     0.77500
Cd110      Cd  0.12084525  0.38331837  0.03754919     1.37500
O111        O  0.10436527  0.34098335  0.02388630    -0.57500
O112        O  0.09114751  0.40371693  0.01812001    -0.56300
C113        C  0.13419338  0.38277000  0.06853699     0.77400
O114        O  0.09464821  0.42935066  0.03769777    -0.58700
O115        O  0.08338214  0.34935030  0.04444479    -0.57200
O116        O  0.16110593  0.40911786  0.02600835    -0.57200
O117        O  0.14296089  0.36376189  0.05973111    -0.56300
O118        O  0.91822873  0.09450565  0.06003618    -0.57500
C119        C  0.95241023  0.07090499  0.02035410     0.75100
O120        O  0.87845291  0.13508395  0.02143411    -0.58700
C121        C  0.90336805  0.11457619  0.06544426     0.75100
C122        C  0.95737177  0.16156050  0.03138620     0.77500
Cd123      Cd  0.91879008  0.11415682  0.03472748     1.37500
O124        O  0.94603466  0.06890524  0.03387986    -0.57500
O125        O  0.96015124  0.14346878  0.04164084    -0.56300
C126        C  0.86325080  0.11271120  0.02131761     0.77400
O127        O  0.93608971  0.15821109  0.02296830    -0.58700
O128        O  0.94207581  0.09200161  0.01349107    -0.57200
O129        O  0.89600919  0.13426261  0.05667822    -0.57200
O130        O  0.87388685  0.09078092  0.02739289    -0.56300
O131        O  0.11798183  0.90445301  0.93162358    -0.57500
C132        C  0.08041908  0.92678080  0.97104005     0.75100
O133        O  0.10465213  0.83527925  0.96379433    -0.58700
C134        C  0.13363982  0.88475054  0.92645546     0.75100
C135        C  0.16886997  0.89103456  0.97318717     0.77500
Cd136      Cd  0.11641729  0.88504457  0.95698086     1.37500
O137        O  0.08881235  0.93004416  0.95787559    -0.57500
O138        O  0.16133260  0.90911862  0.96356684    -0.56300
C139        C  0.08109185  0.83463469  0.95693637     0.77400
O140        O  0.15218598  0.87008855  0.97522565    -0.58700
O141        O  0.08861536  0.90434213  0.97754102    -0.57200
O142        O  0.14220785  0.86619967  0.93557586    -0.57200
O143        O  0.07398803  0.85737941  0.95036782    -0.56300
O144        O  0.92369113  0.58803957  0.93383410    -0.57500
C145        C  0.95484751  0.56773895  0.97416137     0.75100
O146        O  0.93050764  0.65940192  0.96450601    -0.58700
C147        C  0.90676812  0.60564674  0.92783843     0.75100
C148        C  0.86532818  0.60712085  0.97359902     0.77500
Cd149      Cd  0.91981472  0.60877033  0.95885623     1.37500
O150        O  0.94277620  0.56151818  0.96209720    -0.57500
O151        O  0.87344146  0.58710643  0.96521117    -0.56300
C152        C  0.95466607  0.65974108  0.95822758     0.77400
O153        O  0.88294907  0.62729664  0.97558637    -0.58700
O154        O  0.94956816  0.59222339  0.97939237    -0.57200
O155        O  0.89510301  0.62367177  0.93629774    -0.57200
O156        O  0.96269897  0.63640075  0.95255850    -0.56300
O157        O  0.44204018  0.92688935  0.03570943    -0.57500
C158        C  0.40178644  0.88546424  0.06746951     0.75100
O159        O  0.37388687  0.86325424  0.02330978    -0.58700
C160        C  0.45462369  0.92197567  0.02364533     0.75100
C161        C  0.44772900  0.82813143  0.03396997     0.77500
Cd162      Cd  0.41605414  0.88105160  0.03659231     1.37500
O163        O  0.42244412  0.89928663  0.06196596    -0.57500
O164        O  0.45153993  0.84538484  0.04453063    -0.56300
C165        C  0.36210316  0.88730977  0.02145971     0.77400
O166        O  0.42898559  0.83526042  0.02464045    -0.58700
O167        O  0.38800621  0.86951013  0.05873304    -0.57200
O168        O  0.44866824  0.89855508  0.01739884    -0.57200
O169        O  0.37511249  0.90871733  0.02674181    -0.56300
O170        O  0.62230860  0.58539350  0.05921681    -0.57500
C171        C  0.58456542  0.56475101  0.01891114     0.75100
O172        O  0.60228583  0.65697230  0.02644455    -0.58700
C173        C  0.62428578  0.60894666  0.06603288     0.75100
C174        C  0.67245860  0.60904923  0.02285247     0.77500
Cd175      Cd  0.61540413  0.60820572  0.03461198     1.37500
O176        O  0.58556374  0.56476742  0.03285842    -0.57500
O177        O  0.66300131  0.58781863  0.02998431    -0.56300
C178        C  0.57620658  0.65514773  0.03004381     0.77400
O179        O  0.65536441  0.62970744  0.02103983    -0.58700
O180        O  0.59910481  0.58371652  0.01239079    -0.57200
O181        O  0.62274857  0.63131904  0.05828227    -0.57200
O182        O  0.56849916  0.63158139  0.03566201    -0.56300
O183        O  0.37576024  0.36372026  0.96600778    -0.57500
C184        C  0.44674073  0.33353237  0.95932724     0.75100
O185        O  0.39730359  0.40724497  0.93018170    -0.58700
C186        C  0.36105316  0.38630145  0.96704793     0.75100
C187        C  0.45486842  0.42710525  0.96599977     0.77500
Cd188      Cd  0.41669502  0.38573667  0.95310219     1.37500
O189        O  0.42338612  0.33337216  0.95226082    -0.57500
O190        O  0.43678190  0.41328686  0.97352682    -0.56300
C191        C  0.41054435  0.39083021  0.92145718     0.77400
O192        O  0.45408394  0.42318909  0.95220264    -0.58700
O193        O  0.45552428  0.35765839  0.96366994    -0.57200
O194        O  0.37205365  0.40866012  0.96161165    -0.57200
O195        O  0.42681419  0.37262801  0.92737950    -0.56300
O196        O  0.59250099  0.06453160  0.96253665    -0.57500
C197        C  0.62511706  0.11230830  0.93022608     0.75100
O198        O  0.60203948  0.16394914  0.96580518    -0.58700
C199        C  0.58229731  0.06768827  0.97535730     0.75100
C200        C  0.66592990  0.11041032  0.97705602     0.77500
Cd201      Cd  0.61268640  0.11313723  0.96125680     1.37500
O202        O  0.60617017  0.09622285  0.93574050    -0.57500
O203        O  0.65936689  0.09234706  0.96725530    -0.56300
C204        C  0.57541914  0.16175654  0.96362403     0.77400
O205        O  0.64777990  0.12992499  0.97944470    -0.58700
O206        O  0.63797129  0.12879226  0.93905398    -0.57200
O207        O  0.58664789  0.09153526  0.98153449    -0.57200
O208        O  0.56628574  0.13723551  0.96013700    -0.56300
O209        O  0.43939214  0.58275479  0.53355077    -0.57500
C210        C  0.38942761  0.61473165  0.56368021     0.75100
O211        O  0.41650017  0.67125752  0.54040126    -0.58700
C212        C  0.43710562  0.57631653  0.52002877     0.75100
C213        C  0.35092052  0.62073136  0.51674265     0.77500
Cd214      Cd  0.40385978  0.62205013  0.53297497     1.37500
O215        O  0.40951557  0.60065347  0.55778260    -0.57500
O216        O  0.35810623  0.60128123  0.52568085    -0.56300
C217        C  0.43860776  0.67344357  0.53253424     0.77400
O218        O  0.36815627  0.64150950  0.51544539    -0.58700
O219        O  0.37560472  0.63120079  0.55524860    -0.57200
O220        O  0.41914931  0.59067462  0.51271180    -0.57200
O221        O  0.44387257  0.65252114  0.52416504    -0.56300
O222        O  0.59927283  0.91527657  0.56387137    -0.57500
C223        C  0.56693867  0.93448451  0.52343424     0.75100
O224        O  0.64766598  0.87617021  0.52740308    -0.58700
C225        C  0.61772135  0.89901581  0.56967552     0.75100
C226        C  0.56969198  0.84435368  0.53708266     0.77500
Cd227      Cd  0.60420096  0.89532517  0.53868559     1.37500
O228        O  0.57552660  0.93945238  0.53642526    -0.57500
O229        O  0.56353002  0.86518001  0.54536336    -0.56300
C230        C  0.65946661  0.89999741  0.52480741     0.77400
O231        O  0.59229947  0.84685874  0.52954521    -0.58700
O232        O  0.57661381  0.91214874  0.51734527    -0.57200
O233        O  0.63032514  0.88185722  0.56112050    -0.57200
O234        O  0.64530443  0.92212048  0.52819888    -0.56300
O235        O  0.61109594  0.41611237  0.43221543    -0.57500
C236        C  0.57315911  0.43767861  0.47116268     0.75100
O237        O  0.60080571  0.34503666  0.46340052    -0.58700
C238        C  0.62761549  0.39739056  0.42681552     0.75100
C239        C  0.66384734  0.40026008  0.47352575     0.77500
Cd240      Cd  0.61054675  0.39580704  0.45741711     1.37500
O241        O  0.58284513  0.44100263  0.45825714    -0.57500
O242        O  0.65677921  0.41880175  0.46404323    -0.56300
C243        C  0.57715298  0.34360084  0.45667974     0.77400
O244        O  0.64592441  0.38046630  0.47580425    -0.58700
O245        O  0.58092235  0.41506946  0.47769171    -0.57200
O246        O  0.63660330  0.37855304  0.43565909    -0.57200
O247        O  0.56882217  0.36643754  0.45059550    -0.56300
O248        O  0.40904037  0.09897762  0.43068198    -0.57500
C249        C  0.44334158  0.07694099  0.46984011     0.75100
O250        O  0.42885093  0.16729504  0.46486206    -0.58700
C251        C  0.39675390  0.11976916  0.42439797     0.75100
C252        C  0.35572699  0.12308213  0.46903730     0.77500
Cd253      Cd  0.41115915  0.12129035  0.45522613     1.37500
O254        O  0.43464750  0.07367478  0.45674798    -0.57500
O255        O  0.36391880  0.10167788  0.46164707    -0.56300
C256        C  0.45113253  0.16841287  0.45697690     0.77400
O257        O  0.37335114  0.14344624  0.47029160    -0.58700
O258        O  0.43591287  0.09976783  0.47621564    -0.57200
O259        O  0.39120413  0.14123894  0.43239163    -0.57200
O260        O  0.45455955  0.14794535  0.44804025    -0.56300
O261        O  0.90576123  0.90957933  0.43087371    -0.57500
C262        C  0.94145757  0.92804714  0.46825858     0.75100
O263        O  0.85710399  0.87006477  0.46722864    -0.58700
C264        C  0.88598717  0.89474338  0.42514952     0.75100
C265        C  0.93224460  0.83502702  0.45914664     0.77500
Cd266      Cd  0.90113861  0.88814743  0.45581232     1.37500
O267        O  0.93742732  0.92654855  0.45448799    -0.57500
O268        O  0.92229995  0.84842745  0.47006328    -0.56300
C269        C  0.84639786  0.89425823  0.47011045     0.77400
O270        O  0.92733136  0.84607500  0.44669911    -0.58700
O271        O  0.92604432  0.91192253  0.47613105    -0.57200
O272        O  0.87340985  0.87730783  0.43361668    -0.57200
O273        O  0.86111983  0.91587946  0.46649774    -0.56300
O274        O  0.07667958  0.56610163  0.46150777    -0.57500
C275        C  0.10979528  0.61614195  0.42795099     0.75100
O276        O  0.08511922  0.66293427  0.46751123    -0.58700
C277        C  0.06767668  0.56970938  0.47453115     0.75100
C278        C  0.15367161  0.61416674  0.47280225     0.77500
Cd279      Cd  0.09805009  0.61454703  0.45924802     1.37500
O280        O  0.09489474  0.59624815  0.43352277    -0.57500
O281        O  0.14625030  0.59535715  0.46352988    -0.56300
C282        C  0.05997317  0.66230751  0.46239927     0.77400
O283        O  0.13521614  0.63294266  0.47592316    -0.58700
O284        O  0.11872876  0.63504778  0.43678298    -0.57200
O285        O  0.07331905  0.59358135  0.48037373    -0.57200
O286        O  0.05282674  0.63984651  0.45555868    -0.56300
O287        O  0.90100013  0.40523634  0.56434425    -0.57500
C288        C  0.94384631  0.42609559  0.52700232     0.75100
O289        O  0.91634782  0.33322773  0.53143670    -0.58700
C290        C  0.90015037  0.38212204  0.57154531     0.75100
C291        C  0.85214704  0.38803804  0.52734315     0.77500
Cd292      Cd  0.90859052  0.38280540  0.54006789     1.37500
O293        O  0.94441862  0.42123314  0.54071433    -0.57500
O294        O  0.86403601  0.40844076  0.53412275    -0.56300
C295        C  0.94321126  0.33374618  0.53307517     0.77400
O296        O  0.86648252  0.36515659  0.52641681    -0.58700
O297        O  0.92618744  0.41168048  0.51948777    -0.57200
O298        O  0.90318648  0.35939988  0.56417615    -0.57200
O299        O  0.95371956  0.35691974  0.53780451    -0.56300
O300        O  0.11508032  0.08996105  0.55584494    -0.57500
C301        C  0.07472085  0.06949851  0.51631262     0.75100
O302        O  0.09168348  0.15896607  0.52123584    -0.58700
C303        C  0.11634204  0.11332370  0.56288582     0.75100
C304        C  0.16415958  0.11694478  0.51920689     0.77500
Cd305      Cd  0.10734646  0.11287976  0.53138964     1.37500
O306        O  0.08079823  0.06724488  0.52985544    -0.57500
O307        O  0.15436368  0.09359181  0.52412083    -0.56300
C308        C  0.06782194  0.15916787  0.52780616     0.77400
O309        O  0.14750444  0.13818555  0.51973319    -0.58700
O310        O  0.08515434  0.09083252  0.50965302    -0.57200
O311        O  0.11431586  0.13586051  0.55529217    -0.57200
O312        O  0.06232787  0.13773931  0.53585747    -0.56300
O313        O  0.18449178  0.32915429  0.21392880    -0.57500
C314        C  0.14161436  0.35967731  0.17847871     0.75100
O315        O  0.08805401  0.34118690  0.21541744    -0.58700
C316        C  0.17891413  0.32049499  0.22683655     0.75100
C317        C  0.13648194  0.40851529  0.22400325     0.77500
Cd318      Cd  0.13809674  0.35320063  0.21005353     1.37500
O319        O  0.16376651  0.35544133  0.18616057    -0.57500
O320        O  0.15845445  0.39973380  0.21729057    -0.56300
C321        C  0.09027695  0.31504721  0.21191240     0.77400
O322        O  0.11498655  0.39216549  0.22372701    -0.58700
O323        O  0.11843663  0.36231674  0.18546178    -0.57200
O324        O  0.15510346  0.32807000  0.23211662    -0.57200
O325        O  0.11462995  0.30694738  0.20755852    -0.56300
O326        O  0.81914179  0.17900196  0.20727245    -0.57500
C327        C  0.86771533  0.14185256  0.17398728     0.75100
O328        O  0.89916268  0.19212753  0.19835859    -0.58700
C329        C  0.82352200  0.18823202  0.22021266     0.75100
C330        C  0.86105277  0.09796655  0.21827752     0.77500
Cd331      Cd  0.86600678  0.15388497  0.20518936     1.37500
O332        O  0.85463250  0.16351050  0.17896535    -0.57500
O333        O  0.83993583  0.11022281  0.21226314    -0.56300
C334        C  0.91739725  0.18717625  0.20830444     0.77400
O335        O  0.88433107  0.11181100  0.21832290    -0.58700
O336        O  0.87908189  0.12554049  0.18341892    -0.57200
O337        O  0.84682438  0.18085108  0.22608928    -0.57200
O338        O  0.91189875  0.16649821  0.21683113    -0.56300
O339        O  0.34744099  0.14454593  0.30965289    -0.57500
C340        C  0.31930298  0.18343414  0.27229508     0.75100
O341        O  0.41249007  0.16463332  0.27514114    -0.58700
C342        C  0.37017277  0.13406160  0.31490130     0.75100
C343        C  0.36227792  0.09460355  0.26967610     0.77500
Cd344      Cd  0.36528786  0.14940728  0.28427932     1.37500
O345        O  0.31945764  0.17569588  0.28567133    -0.57500
O346        O  0.34253940  0.10365701  0.27795976    -0.56300
C347        C  0.41177546  0.18920845  0.28097355     0.77400
O348        O  0.38345661  0.11113395  0.26798728    -0.58700
O349        O  0.33993585  0.17466732  0.26450930    -0.57200
O350        O  0.39058851  0.13074383  0.30594713    -0.57200
O351        O  0.38951733  0.19505819  0.28827515    -0.56300
O352        O  0.67919184  0.31551361  0.28625618    -0.57500
C353        C  0.64061417  0.35850429  0.31838786     0.75100
O354        O  0.61705342  0.39073904  0.27538840    -0.58700
C355        C  0.67814102  0.31110936  0.27249607     0.75100
C356        C  0.58598195  0.31486725  0.28327692     0.77500
Cd357      Cd  0.63727470  0.34759468  0.28698646     1.37500
O358        O  0.66257624  0.35975543  0.31028916    -0.57500
O359        O  0.60806360  0.30453916  0.28933004    -0.56300
C360        C  0.64076850  0.40213050  0.27218497     0.77400
O361        O  0.58779550  0.34040936  0.27872431    -0.58700
O362        O  0.61742568  0.35299627  0.31189696    -0.57200
O363        O  0.65776814  0.32290336  0.26567581    -0.57200
O364        O  0.66283318  0.38865976  0.27617182    -0.56300
O365        O  0.35076849  0.83788765  0.18066398    -0.57500
C366        C  0.31972219  0.81453872  0.22153635     0.75100
O367        O  0.41513095  0.83647648  0.21336143    -0.58700
C368        C  0.36648994  0.85762856  0.17558156     0.75100
C369        C  0.36138482  0.90003709  0.22160549     0.77500
Cd370      Cd  0.36471626  0.84561058  0.20677898     1.37500
O371        O  0.31544702  0.82598150  0.20907730    -0.57500
O372        O  0.34339604  0.89268227  0.21191332    -0.56300
C373        C  0.41546962  0.81054734  0.20937312     0.77400
O374        O  0.38044102  0.88182703  0.22473931    -0.58700
O375        O  0.34448097  0.81753402  0.22687103    -0.57200
O376        O  0.38022145  0.87219840  0.18493151    -0.57200
O377        O  0.39242454  0.80107322  0.20394580    -0.56300
O378        O  0.68218936  0.67710888  0.20699306    -0.57500
C379        C  0.64325977  0.63303336  0.17516790     0.75100
O380        O  0.61817219  0.60516323  0.21796017    -0.58700
C381        C  0.68066640  0.68208612  0.22067559     0.75100
C382        C  0.59065218  0.68500987  0.20894380     0.77500
Cd383      Cd  0.63906461  0.64732585  0.20596169     1.37500
O384        O  0.66386702  0.64448561  0.18199033    -0.57500
O385        O  0.61197537  0.69125378  0.20100356    -0.56300
C386        C  0.64150346  0.59209936  0.21993760     0.77400
O387        O  0.59145343  0.66091398  0.21527455    -0.58700
O388        O  0.62081044  0.62855742  0.18255816    -0.57200
O389        O  0.66046458  0.67003706  0.22756931    -0.57200
O390        O  0.66389698  0.60474513  0.21562617    -0.56300
O391        O  0.81006480  0.82813730  0.28505404    -0.57500
C392        C  0.85285387  0.87151640  0.31661514     0.75100
O393        O  0.90622535  0.84300915  0.28014688    -0.58700
C394        C  0.81398544  0.81794729  0.27230273     0.75100
C395        C  0.85319656  0.90652378  0.26935460     0.77500
Cd396      Cd  0.85596207  0.85416883  0.28616436     1.37500
O397        O  0.83639159  0.85256953  0.31140827    -0.57500
O398        O  0.83289258  0.89890391  0.27771520    -0.56300
C399        C  0.90657041  0.81854542  0.28608936     0.77400
O400        O  0.87441881  0.88984598  0.26885415    -0.58700
O401        O  0.87025092  0.88282729  0.30769237    -0.57200
O402        O  0.83666885  0.82563037  0.26583521    -0.57200
O403        O  0.88353230  0.81054142  0.29208429    -0.56300
O404        O  0.17667884  0.68346776  0.28659300    -0.57500
C405        C  0.13441794  0.64579594  0.31852988     0.75100
O406        O  0.07884764  0.66423578  0.28867803    -0.58700
C407        C  0.17673447  0.68735373  0.27276441     0.75100
C408        C  0.13237876  0.60259542  0.27195661     0.77500
Cd409      Cd  0.13097253  0.65660708  0.28708054     1.37500
O410        O  0.14203489  0.66956455  0.31308543    -0.57500
O411        O  0.15068890  0.60912652  0.28165710    -0.56300
C412        C  0.07959520  0.69035769  0.28510640     0.77400
O413        O  0.11345661  0.62116067  0.26914662    -0.58700
O414        O  0.12594482  0.62719983  0.30942907    -0.57200
O415        O  0.15622726  0.67631408  0.26571271    -0.57200
O416        O  0.10378563  0.70047112  0.28185123    -0.56300
C417        C  0.98351584  0.79219710  0.28459616    -0.11100
C418        C  0.97948465  0.76250103  0.28372143     0.15400
C419        C  0.95139981  0.75140305  0.28394087     0.02300
C420        C  0.92817735  0.77011648  0.28515194    -0.15500
C421        C  0.93215363  0.79989976  0.28578220    -0.10300
C422        C  0.96031041  0.81093597  0.28563696     0.09100
C423        C  0.00499546  0.74367423  0.28367422     0.10100
S424        S  0.94373141  0.71368141  0.28238859    -0.24600
H425        H  0.90673768  0.76133766  0.28516707     0.20300
S426        S  0.96825987  0.84848349  0.28751791    -0.30300
H427        H  0.00501866  0.80081692  0.28482367     0.10700
C428        C  0.02553029  0.74486122  0.27229355     0.03900
C429        C  0.04982600  0.72736152  0.27308913    -0.12600
C430        C  0.05377892  0.70836389  0.28489070    -0.08300
C431        C  0.03327425  0.70734206  0.29629814     0.07300
C432        C  0.00916604  0.72490528  0.29554681    -0.13400
S433        S  0.02035506  0.76782158  0.25649490    -0.30300
H434        H  0.06560650  0.72808145  0.26436921     0.11600
S435        S  0.03730430  0.68522194  0.31245204    -0.27400
H436        H  0.99373015  0.72434618  0.30444642     0.08800
H437        H  0.94727236  0.85344083  0.29832464     0.27200
H438        H  0.04578576  0.76060071  0.24912404     0.22000
H439        H  0.06696106  0.68943435  0.31381230     0.27300
H440        H  0.96749723  0.70699294  0.27355789     0.16200
C441        C  0.74814388  0.77334768  0.26280942    -0.11100
C442        C  0.75950306  0.75493083  0.25211407     0.15400
C443        C  0.78852423  0.75735532  0.24818068     0.02300
C444        C  0.80530621  0.77859918  0.25465263    -0.15500
C445        C  0.79416288  0.79708940  0.26543348    -0.10300
C446        C  0.76513859  0.79427777  0.26961900     0.09100
C447        C  0.73995099  0.73542321  0.24419060     0.10100
S448        S  0.80549019  0.73369504  0.23514013    -0.24600
H449        H  0.82758287  0.78014261  0.25148845     0.20300
S450        S  0.74896243  0.81790371  0.28299879    -0.30300
H451        H  0.72569727  0.77162188  0.26555999     0.10700
C452        C  0.72578532  0.71277390  0.25137254     0.03900
C453        C  0.70652182  0.69578772  0.24340957    -0.12600
C454        C  0.70128799  0.70081446  0.22837299    -0.08300
C455        C  0.71567901  0.72358489  0.22124141     0.07300
C456        C  0.73488382  0.74042622  0.22919861    -0.13400
S457        S  0.73287938  0.70491845  0.27051859    -0.30300
H458        H  0.69570079  0.67828816  0.24888817     0.11600
S459        S  0.70957092  0.73339655  0.20229849    -0.27400
H460        H  0.74553372  0.75809355  0.22373847     0.08800
H461        H  0.72140801  0.80587894  0.28268922     0.27200
H462        H  0.71490964  0.68087208  0.27161459     0.22000
H463        H  0.67964354  0.73123845  0.20331698     0.27300
H464        H  0.78833622  0.70974504  0.23829420     0.16200
C465        C  0.24869492  0.78341969  0.23472077    -0.11100
C466        C  0.25838311  0.76160232  0.24407375     0.15400
C467        C  0.28797196  0.75788775  0.24622545     0.02300
C468        C  0.30718849  0.77597255  0.23901943    -0.15500
C469        C  0.29772436  0.79760127  0.22943062    -0.10300
C470        C  0.26796970  0.80168909  0.22754075     0.09100
C471        C  0.23724517  0.74306599  0.25151437     0.10100
S472        S  0.30261965  0.73043936  0.25798259    -0.24600
H473        H  0.32986588  0.77255368  0.24064663     0.20300
S474        S  0.25315693  0.83047359  0.21678140    -0.30300
H475        H  0.22593877  0.78655088  0.23323453     0.10700
C476        C  0.23009682  0.74693123  0.26645124     0.03900
C477        C  0.21106778  0.72781206  0.27323617    -0.12600
C478        C  0.19877867  0.70502402  0.26534320    -0.08300
C479        C  0.20627853  0.70121153  0.25033847     0.07300
C480        C  0.22508494  0.72044461  0.24358856    -0.13400
S481        S  0.24472285  0.77660438  0.27673716    -0.30300
H482        H  0.20518001  0.73105825  0.28465381     0.11600
S483        S  0.19365009  0.67172717  0.23930964    -0.27400
H484        H  0.23093292  0.71731852  0.23213838     0.08800
H485        H  0.27309071  0.85093431  0.22166850     0.27200
H486        H  0.22948045  0.77160938  0.28984923     0.22000
H487        H  0.19565967  0.65145234  0.25072625     0.27300
H488        H  0.28120415  0.70997575  0.25538771     0.16200
C489        C  0.52267252  0.72162624  0.22236705    -0.11100
C490        C  0.51737854  0.74047273  0.21067229     0.15400
C491        C  0.53723231  0.74239856  0.19901641     0.02300
C492        C  0.56096559  0.72426994  0.19885631    -0.15500
C493        C  0.56597453  0.70468832  0.21032102    -0.10300
C494        C  0.54698301  0.70417699  0.22247821     0.09100
C495        C  0.49075861  0.75748769  0.21077637     0.10100
S496        S  0.53332233  0.76722988  0.18392780    -0.24600
H497        H  0.57551594  0.72533762  0.18958155     0.20300
S498        S  0.55305986  0.68284008  0.23871845    -0.30300
H499        H  0.50782153  0.72065992  0.23152038     0.10700
C500        C  0.46737488  0.75011534  0.20179359     0.03900
C501        C  0.44300887  0.76756963  0.20174551    -0.12600
C502        C  0.44133158  0.79221845  0.21061896    -0.08300
C503        C  0.46455151  0.79873684  0.22009404     0.07300
C504        C  0.48899750  0.78150283  0.21993946    -0.13400
S505        S  0.46859526  0.71843775  0.19040329    -0.30300
H506        H  0.42536187  0.76220348  0.19454741     0.11600
S507        S  0.46425184  0.82804245  0.23297719    -0.27400
H508        H  0.50684539  0.78682193  0.22704068     0.08800
H509        H  0.58259571  0.68845756  0.23923311     0.27200
H510        H  0.44025513  0.71989885  0.18530427     0.22000
H511        H  0.43639969  0.82228576  0.23802667     0.27300
H512        H  0.51858815  0.78841117  0.19185203     0.16200
C513        C  0.66563955  0.46455941  0.24844603    -0.11100
C514        C  0.64411968  0.48467115  0.25130374     0.15400
C515        C  0.62158180  0.47736297  0.26094792     0.02300
C516        C  0.62074163  0.45009409  0.26724072    -0.15500
C517        C  0.64236137  0.42999259  0.26451622    -0.10300
C518        C  0.66500784  0.43736626  0.25488622     0.09100
C519        C  0.64434998  0.51206243  0.24310343     0.10100
S520        S  0.59352388  0.50200530  0.26588752    -0.24600
H521        H  0.60338208  0.44480898  0.27466912     0.20300
S522        S  0.69280064  0.41270115  0.24966086    -0.30300
H523        H  0.68262226  0.46982209  0.24078686     0.10700
C524        C  0.66634562  0.53240714  0.24489684     0.03900
C525        C  0.66532025  0.55804750  0.23686671    -0.12600
C526        C  0.64264875  0.56383460  0.22717253    -0.08300
C527        C  0.62112172  0.54299045  0.22511069     0.07300
C528        C  0.62214522  0.51751225  0.23312985    -0.13400
S529        S  0.69491516  0.52642962  0.25792372    -0.30300
H530        H  0.68175409  0.57405673  0.23848391     0.11600
S531        S  0.59238583  0.54702512  0.21204880    -0.27400
H532        H  0.60558766  0.50160097  0.23149149     0.08800
H533        H  0.67434711  0.38906366  0.24837811     0.27200
H534        H  0.71064508  0.55125916  0.25459301     0.22000
H535        H  0.60914009  0.56072328  0.20127678     0.27300
H536        H  0.61017754  0.52693320  0.26460089     0.16200
C537        C  0.34991934  0.97926215  0.22941105    -0.11100
C538        C  0.36028046  0.98139779  0.24385855     0.15400
C539        C  0.36980811  0.95648466  0.25115134     0.02300
C540        C  0.37024606  0.93041099  0.24356252    -0.15500
C541        C  0.36038848  0.92829351  0.22896994    -0.10300
C542        C  0.34998030  0.95317023  0.22187584     0.09100
C543        C  0.36130727  0.01009742  0.25075812     0.10100
S544        S  0.38121182  0.95642819  0.27014311    -0.24600
H545        H  0.37784313  0.91147057  0.24922213     0.20300
S546        S  0.33797200  0.95360317  0.20300795    -0.30300
H547        H  0.34248741  0.99832802  0.22379606     0.10700
C548        C  0.38737703  0.02432004  0.25344467     0.03900
C549        C  0.38703934  0.05200682  0.25943720    -0.12600
C550        C  0.36116461  0.06596196  0.26266675    -0.08300
C551        C  0.33510498  0.05178970  0.25955303     0.07300
C552        C  0.33550767  0.02403030  0.25382533    -0.13400
S553        S  0.42103286  0.00767520  0.24879448    -0.30300
H554        H  0.40704613  0.06277438  0.26169546     0.11600
S555        S  0.30061769  0.06829047  0.26186858    -0.27400
H556        H  0.31547083  0.01334196  0.25144518     0.08800
H557        H  0.36076067  0.93685723  0.19773712     0.27200
H558        H  0.43879505  0.02925740  0.25452830     0.22000
H559        H  0.30918114  0.09482485  0.25599860     0.27300
H560        H  0.36411346  0.97951252  0.27467808     0.16200
C561        C  0.48199091  0.22559615  0.27066201    -0.11100
C562        C  0.48243264  0.24813228  0.28081685     0.15400
C563        C  0.45887226  0.25238944  0.29022842     0.02300
C564        C  0.43601361  0.23317577  0.28975869    -0.15500
C565        C  0.43574694  0.20991362  0.27990201    -0.10300
C566        C  0.45886130  0.20670743  0.26993976     0.09100
C567        C  0.50848071  0.26577670  0.28176563     0.10100
S568        S  0.45702836  0.28128964  0.30338644    -0.24600
H569        H  0.41848377  0.23624870  0.29739345     0.20300
S570        S  0.46034569  0.17938770  0.25596697    -0.30300
H571        H  0.49998733  0.22258121  0.26330320     0.10700
C572        C  0.52855020  0.26151705  0.29309713     0.03900
C573        C  0.55377548  0.27762339  0.29315428    -0.12600
C574        C  0.55932954  0.29803446  0.28214307    -0.08300
C575        C  0.53905635  0.30214034  0.27076000     0.07300
C576        C  0.51384841  0.28605471  0.27074734    -0.13400
S577        S  0.52223763  0.23524696  0.30734839    -0.30300
H578        H  0.56914174  0.27451148  0.30192567     0.11600
S579        S  0.54449122  0.32644075  0.25559882    -0.27400
H580        H  0.49847102  0.28899520  0.26194799     0.08800
H581        H  0.43213120  0.18405674  0.25118092     0.27200
H582        H  0.54718569  0.24067023  0.31552742     0.22000
H583        H  0.57345518  0.31932273  0.25366334     0.27300
H584        H  0.47494365  0.30032044  0.29574352     0.16200
C585        C  0.83541981  0.02340236  0.22923719    -0.11100
C586        C  0.85472181  0.01680748  0.24053059     0.15400
C587        C  0.87644255  0.03649436  0.24415831     0.02300
C588        C  0.87828341  0.06240119  0.23650783    -0.15500
C589        C  0.85877922  0.06936868  0.22528467    -0.10300
C590        C  0.83744853  0.04917298  0.22143530     0.09100
C591        C  0.85304413  0.98836678  0.24757543     0.10100
S592        S  0.90263393  0.02967826  0.25831217    -0.24600
H593        H  0.89485809  0.07747320  0.23956311     0.20300
S594        S  0.81339077  0.05398380  0.20614031    -0.30300
H595        H  0.81919884  0.00793878  0.22618595     0.10700
C596        C  0.83409236  0.98283160  0.25927268     0.03900
C597        C  0.83404817  0.95571866  0.26592981    -0.12600
C598        C  0.85245416  0.93388580  0.26103226    -0.08300
C599        C  0.87059578  0.93941240  0.24883578     0.07300
C600        C  0.87096407  0.96661669  0.24244231    -0.13400
S601        S  0.81086490  0.01069480  0.26607134    -0.30300
H602        H  0.82012059  0.95177646  0.27523867     0.11600
S603        S  0.89316797  0.91270060  0.24052465    -0.27400
H604        H  0.88517423  0.97084351  0.23325954     0.08800
H605        H  0.83459153  0.06482436  0.19666138     0.27200
H606        H  0.79651543  0.99390390  0.27660000     0.22000
H607        H  0.87203956  0.89125965  0.24081673     0.27300
H608        H  0.88486788  0.01305335  0.26739876     0.16200
C609        C  0.78956018  0.24095868  0.24707618    -0.11100
C610        C  0.76055605  0.23791961  0.24362277     0.15400
C611        C  0.75236027  0.21884974  0.23232120     0.02300
C612        C  0.77331782  0.20349757  0.22464527    -0.15500
C613        C  0.80244362  0.20630354  0.22813950    -0.10300
C614        C  0.81053428  0.22566007  0.23943201     0.09100
C615        C  0.73962378  0.25651840  0.25122770     0.10100
S616        S  0.71552459  0.21294348  0.22729349    -0.24600
H617        H  0.76672264  0.18872882  0.21609379     0.20300
S618        S  0.84720035  0.23316582  0.24414617    -0.30300
H619        H  0.79595672  0.25603203  0.25553408     0.10700
C620        C  0.73264029  0.25258155  0.26618793     0.03900
C621        C  0.71272903  0.27085696  0.27287682    -0.12600
C622        C  0.69944951  0.29290839  0.26488267    -0.08300
C623        C  0.70686275  0.29704877  0.24989780     0.07300
C624        C  0.72682820  0.27876274  0.24327519    -0.13400
S625        S  0.74851862  0.22383584  0.27665528    -0.30300
H626        H  0.70718501  0.26771039  0.28434474     0.11600
S627        S  0.69236668  0.32633680  0.23923732    -0.27400
H628        H  0.73277494  0.28183188  0.23185520     0.08800
H629        H  0.85664226  0.23420847  0.22942905     0.27200
H630        H  0.73175986  0.22727081  0.28940147     0.22000
H631        H  0.70569538  0.31957267  0.22579240     0.27300
H632        H  0.70387466  0.21874636  0.24125548     0.16200
C633        C  0.12483577  0.54298373  0.24371505    -0.11100
C634        C  0.13109741  0.51895827  0.25238399     0.15400
C635        C  0.13802888  0.52266244  0.26739560     0.02300
C636        C  0.13920028  0.55024853  0.27331012    -0.15500
C637        C  0.13268913  0.57433394  0.26470109    -0.10300
C638        C  0.12561567  0.57057784  0.24967659     0.09100
C639        C  0.13202550  0.49052838  0.24526633     0.10100
S640        S  0.14486760  0.49302326  0.27963016    -0.24600
H641        H  0.14434199  0.55285602  0.28488163     0.20300
S642        S  0.11881477  0.60006375  0.23736923    -0.30300
H643        H  0.11994009  0.54022874  0.23212294     0.10700
C644        C  0.10706637  0.47703569  0.24008086     0.03900
C645        C  0.10914978  0.45030395  0.23316756    -0.12600
C646        C  0.13561863  0.43639718  0.23168797    -0.08300
C647        C  0.16035720  0.44941906  0.23764447     0.07300
C648        C  0.15839769  0.47659361  0.24397003    -0.13400
S649        S  0.07248378  0.49337045  0.24271373    -0.30300
H650        H  0.09006441  0.44025254  0.22884338     0.11600
S651        S  0.19456940  0.43183167  0.23850556    -0.27400
H652        H  0.17748765  0.48667730  0.24831532     0.08800
H653        H  0.13955465  0.61822059  0.24358988     0.27200
H654        H  0.05613200  0.46967066  0.23820407     0.22000
H655        H  0.18314448  0.40509477  0.24256351     0.27300
H656        H  0.12636311  0.47365325  0.27258405     0.16200
C657        C  0.20988723  0.26383550  0.25240145    -0.11100
C658        C  0.23920237  0.26693394  0.24970290     0.15400
C659        C  0.24862223  0.28860914  0.23998905     0.02300
C660        C  0.22854208  0.30575524  0.23274164    -0.15500
C661        C  0.19911071  0.30226721  0.23517047    -0.10300
C662        C  0.18980199  0.28106493  0.24524706     0.09100
C663        C  0.25900423  0.24521402  0.25580673     0.10100
S664        S  0.28591516  0.29536716  0.23633197    -0.24600
H665        H  0.23601021  0.32210253  0.22518567     0.20300
S666        S  0.15268332  0.27321653  0.24862917    -0.30300
H667        H  0.20251062  0.24691385  0.25964334     0.10700
C668        C  0.26351362  0.24210246  0.27107693     0.03900
C669        C  0.28235797  0.22092578  0.27618103    -0.12600
C670        C  0.29698176  0.20283734  0.26633358    -0.08300
C671        C  0.29145682  0.20547118  0.25104558     0.07300
C672        C  0.27283394  0.22667572  0.24600421    -0.13400
S673        S  0.24641120  0.26599045  0.28400276    -0.30300
H674        H  0.28643791  0.21910807  0.28788635     0.11600
S675        S  0.30668519  0.18209581  0.23735578    -0.27400
H676        H  0.26879217  0.22857500  0.23427857     0.08800
H677        H  0.14497505  0.27469628  0.23368993     0.27200
H678        H  0.25936328  0.25504453  0.29679897     0.22000
H679        H  0.30307063  0.15714646  0.24584336     0.27300
H680        H  0.29612744  0.28532270  0.24995172     0.16200
C681        C  0.98263980  0.22624101  0.22339318    -0.11100
C682        C  0.99197138  0.24067702  0.21076138     0.15400
C683        C  0.97744389  0.23671328  0.19730903     0.02300
C684        C  0.95330040  0.21915924  0.19690562    -0.15500
C685        C  0.94366542  0.20467777  0.20955324    -0.10300
C686        C  0.95883493  0.20817179  0.22293315     0.09100
C687        C  0.01678127  0.25993170  0.21196994     0.10100
S688        S  0.98839801  0.25365737  0.18033846    -0.24600
H689        H  0.94211422  0.21657247  0.18653479     0.20300
S690        S  0.94797482  0.19173886  0.23996435    -0.30300
H691        H  0.99386289  0.22930833  0.23372220     0.10700
C692        C  0.01349889  0.28981750  0.21224368     0.03900
C693        C  0.03784006  0.30726141  0.21251468    -0.12600
C694        C  0.06545705  0.29537382  0.21252810    -0.08300
C695        C  0.06851934  0.26519858  0.21277959     0.07300
C696        C  0.04408699  0.24790553  0.21251286    -0.13400
S697        S  0.97829991  0.30564149  0.21243108    -0.30300
H698        H  0.03530337  0.33027613  0.21251048     0.11600
S699        S  0.10306182  0.24808996  0.21397177    -0.27400
H700        H  0.04613405  0.22483154  0.21258746     0.08800
H701        H  0.95355435  0.16393353  0.23476851     0.27200
H702        H  0.98723657  0.33409410  0.21034996     0.22000
H703        H  0.09376235  0.22003438  0.21106222     0.27300
H704        H  0.01773189  0.25492872  0.18356300     0.16200
C705        C  0.03038473  0.22748963  0.51557604    -0.11100
C706        C  0.01235702  0.23229134  0.52764436     0.15400
C707        C  0.01119975  0.21204500  0.53915077     0.02300
C708        C  0.02903017  0.18813938  0.53866803    -0.15500
C709        C  0.04779322  0.18356572  0.52680913    -0.10300
C710        C  0.04780611  0.20320531  0.51492060     0.09100
C711        C  0.99582739  0.25910815  0.52824333     0.10100
S712        S  0.98818598  0.21592732  0.55498682    -0.24600
H713        H  0.02863214  0.17329325  0.54784025     0.20300
S714        S  0.06887179  0.19832978  0.49849239    -0.30300
H715        H  0.03093595  0.24285050  0.50663069     0.10700
C716        C  0.00440023  0.28188127  0.53736331     0.03900
C717        C  0.98721850  0.30631095  0.53831268    -0.12600
C718        C  0.96155257  0.30849080  0.53032913    -0.08300
C719        C  0.95380359  0.28603367  0.52064002     0.07300
C720        C  0.97089856  0.26153873  0.51980865    -0.13400
S721        S  0.03710330  0.27967806  0.54789117    -0.30300
H722        H  0.99345769  0.32348918  0.54563896     0.11600
S723        S  0.92298196  0.28747351  0.50877627    -0.27400
H724        H  0.96466400  0.24413542  0.51259997     0.08800
H725        H  0.06355527  0.16874238  0.49754926     0.27200
H726        H  0.03462216  0.30633640  0.55496111     0.22000
H727        H  0.92667044  0.31648185  0.50508244     0.27300
H728        H  0.96652263  0.23144881  0.54786316     0.16200
C729        C  0.14420256  0.63469925  0.39118431    -0.11100
C730        C  0.12260420  0.62673213  0.38129664     0.15400
C731        C  0.09772474  0.61324968  0.38676295     0.02300
C732        C  0.09470123  0.60875545  0.40195851    -0.15500
C733        C  0.11579506  0.61782445  0.41193271    -0.10300
C734        C  0.14125171  0.63010383  0.40635320     0.09100
C735        C  0.12703938  0.63202500  0.36533604     0.10100
S736        S  0.06875766  0.60198928  0.37499483    -0.24600
H737        H  0.07517144  0.59916613  0.40606230     0.20300
S738        S  0.17125554  0.63926496  0.41789527    -0.30300
H739        H  0.16367842  0.64429120  0.38700888     0.10700
C740        C  0.12637543  0.65991038  0.35942181     0.03900
C741        C  0.12991848  0.66386093  0.34418512    -0.12600
C742        C  0.13418636  0.64049908  0.33467746    -0.08300
C743        C  0.13597155  0.61265688  0.34080121     0.07300
C744        C  0.13204536  0.60874614  0.35596714    -0.13400
S745        S  0.11965120  0.69035418  0.37118241    -0.30300
H746        H  0.12840785  0.68518157  0.33959684     0.11600
S747        S  0.14409022  0.58130306  0.33003372    -0.27400
H748        H  0.13313220  0.58736440  0.36055148     0.08800
H749        H  0.16782677  0.61593286  0.42754455     0.27200
H750        H  0.12158223  0.71141338  0.36015309     0.22000
H751        H  0.16443909  0.59512946  0.32109904     0.27300
H752        H  0.07229769  0.62345468  0.36429942     0.16200
C753        C  0.03536179  0.49922428  0.48768032    -0.11100
C754        C  0.01574741  0.50917270  0.49816566     0.15400
C755        C  0.01379468  0.53871502  0.50105713     0.02300
C756        C  0.03110045  0.55770857  0.49321177    -0.15500
C757        C  0.05057059  0.54799442  0.48252589    -0.10300
C758        C  0.05281477  0.51828032  0.47978899     0.09100
C759        C  0.99705667  0.48823511  0.50559041     0.10100
S760        S  0.98920910  0.55364248  0.51431581    -0.24600
H761        H  0.02906311  0.58041616  0.49538292     0.20300
S762        S  0.07842502  0.50418486  0.46677755    -0.30300
H763        H  0.03679979  0.47643956  0.48566110     0.10700
C764        C  0.96878061  0.48367840  0.50086053     0.03900
C765        C  0.95187916  0.46329902  0.50809255    -0.12600
C766        C  0.96268958  0.44743269  0.51998774    -0.08300
C767        C  0.99120917  0.45197888  0.52461677     0.07300
C768        C  0.00798082  0.47244095  0.51742656    -0.13400
S769        S  0.95441219  0.50352841  0.48547963    -0.30300
H770        H  0.93009879  0.45975432  0.50451000     0.11600
S771        S  0.00799383  0.43141232  0.53901385    -0.27400
H772        H  0.02985725  0.47583202  0.52093308     0.08800
H773        H  0.06974106  0.47541128  0.46760044     0.27200
H774        H  0.92670458  0.49189289  0.48601165     0.22000
H775        H  0.99611177  0.40514413  0.53455362     0.27300
H776        H  0.98793780  0.52976262  0.52368852     0.16200
C777        C  0.86401421  0.91057151  0.35287042    -0.11100
C778        C  0.86268122  0.88762274  0.36283008     0.15400
C779        C  0.85531757  0.86013502  0.35756724     0.02300
C780        C  0.85016748  0.85607222  0.34254814    -0.15500
C781        C  0.85308538  0.87862195  0.33246830    -0.10300
C782        C  0.85918286  0.90640259  0.33778117     0.09100
C783        C  0.86834124  0.89285332  0.37868189     0.10100
S784        S  0.85351200  0.82902730  0.36930015    -0.24600
H785        H  0.84551295  0.83468990  0.33859741     0.20300
S786        S  0.86027024  0.93742116  0.32597651    -0.30300
H787        H  0.86882550  0.93185997  0.35689829     0.10700
C788        C  0.89581763  0.90016190  0.38386168     0.03900
C789        C  0.90068254  0.90212109  0.39910758    -0.12600
C790        C  0.87867896  0.89674795  0.40928962    -0.08300
C791        C  0.85082388  0.89105009  0.40396986     0.07300
C792        C  0.84605288  0.88899008  0.38879859    -0.13400
S793        S  0.92514233  0.90503704  0.37114727    -0.30300
H794        H  0.92202217  0.90649222  0.40312382     0.11600
S795        S  0.82032952  0.88656033  0.41588738    -0.27400
H796        H  0.82480503  0.88395194  0.38481733     0.08800
H797        H  0.83943653  0.92743910  0.31604700     0.27200
H798        H  0.94568643  0.91306321  0.38167920     0.22000
H799        H  0.82913198  0.90724129  0.42620346     0.27300
H800        H  0.87566994  0.83740583  0.37883195     0.16200
C801        C  0.00501977  0.97782757  0.47428871    -0.11100
C802        C  0.00029765  0.98654888  0.48885486     0.15400
C803        C  0.97642854  0.97581666  0.49660315     0.02300
C804        C  0.95812287  0.95636213  0.48968534    -0.15500
C805        C  0.96257775  0.94771677  0.47502326    -0.10300
C806        C  0.98674958  0.95830264  0.46736454     0.09100
C807        C  0.02047238  0.00710880  0.49556386     0.10100
S808        S  0.96778384  0.98638040  0.51521215    -0.24600
H809        H  0.93976292  0.94848688  0.49573277     0.20300
S810        S  0.99640345  0.94686560  0.44907557    -0.30300
H811        H  0.02345930  0.98589249  0.46836910     0.10700
C812        C  0.03970403  0.99891761  0.50673180     0.03900
C813        C  0.05713959  0.01971461  0.51334173    -0.12600
C814        C  0.05615819  0.04843769  0.50878648    -0.08300
C815        C  0.03722221  0.05632954  0.49730936     0.07300
C816        C  0.01985062  0.03556870  0.49078097    -0.13400
S817        S  0.04253107  0.96190572  0.51226683    -0.30300
H818        H  0.07185013  0.01354500  0.52198115     0.11600
S819        S  0.03294580  0.09263516  0.49097256    -0.27400
H820        H  0.00503755  0.04180514  0.48217786     0.08800
H821        H  0.99108966  0.91773048  0.45188719     0.27200
H822        H  0.06329793  0.96600373  0.52326933     0.22000
H823        H  0.03288800  0.10465176  0.50519079     0.27300
H824        H  0.97962170  0.01397247  0.51444938     0.16200
C825        C  0.97050405  0.76943121  0.47469231    -0.11100
C826        C  0.98576221  0.76036588  0.46227773     0.15400
C827        C  0.98246899  0.77504880  0.44881371     0.02300
C828        C  0.96465152  0.79896028  0.44818393    -0.15500
C829        C  0.94943566  0.80848247  0.46062273    -0.10300
C830        C  0.95218276  0.79303498  0.47401196     0.09100
C831        C  0.00491691  0.73550322  0.46367951     0.10100
S832        S  0.00075004  0.76485745  0.43208654    -0.24600
H833        H  0.96289980  0.81035072  0.43782498     0.20300
S834        S  0.93279775  0.80170998  0.49056311    -0.30300
H835        H  0.97280153  0.75788896  0.48498557     0.10700
C836        C  0.03475110  0.73886165  0.46455206     0.03900
C837        C  0.05222513  0.71453342  0.46466650    -0.12600
C838        C  0.04039785  0.68691594  0.46395704    -0.08300
C839        C  0.01030953  0.68374390  0.46401407     0.07300
C840        C  0.99296238  0.70804939  0.46370437    -0.13400
S841        S  0.05050238  0.77412883  0.46524346    -0.30300
H842        H  0.07521633  0.71706932  0.46481172     0.11600
S843        S  0.99265521  0.64948943  0.46487484    -0.27400
H844        H  0.96994155  0.70558387  0.46336290     0.08800
H845        H  0.90630879  0.80375822  0.48330195     0.27200
H846        H  0.07901714  0.76514421  0.46680131     0.22000
H847        H  0.01236227  0.63740731  0.47479629     0.27300
H848        H  0.00421839  0.73573208  0.43541861     0.16200
C849        C  0.35382664  0.11879529  0.35518878    -0.11100
C850        C  0.38109378  0.12143198  0.36139590     0.15400
C851        C  0.40498975  0.12528144  0.35211886     0.02300
C852        C  0.40083695  0.12836038  0.33694844    -0.15500
C853        C  0.37335485  0.12715422  0.33073003    -0.10300
C854        C  0.34974633  0.12110139  0.33997038     0.09100
C855        C  0.38372251  0.12134870  0.37759793     0.10100
S856        S  0.44115028  0.12746787  0.35896107    -0.24600
H857        H  0.41921971  0.13252199  0.33000563     0.20300
S858        S  0.31409023  0.11536303  0.33308399    -0.30300
H859        H  0.33555457  0.11512423  0.36228548     0.10700
C860        C  0.38835331  0.14688030  0.38547743     0.03900
C861        C  0.39155190  0.14579443  0.40081522    -0.12600
C862        C  0.39023625  0.11967112  0.40845139    -0.08300
C863        C  0.38423988  0.09428146  0.40052513     0.07300
C864        C  0.38128185  0.09538915  0.38519615    -0.13400
S865        S  0.39035951  0.18080630  0.37597797    -0.30300
H866        H  0.39593524  0.16529982  0.40683959     0.11600
S867        S  0.37919501  0.06003834  0.40927796    -0.27400
H868        H  0.37706047  0.07587647  0.37912084     0.08800
H869        H  0.32300618  0.10002739  0.32055487     0.27200
H870        H  0.39352046  0.19801430  0.38858758     0.22000
H871        H  0.36462075  0.07113389  0.42157768     0.27300
H872        H  0.43681084  0.11142157  0.37186090     0.16200
C873        C  0.27671220  0.11248050  0.47690101    -0.11100
C874        C  0.27449065  0.12447198  0.49100885     0.15400
C875        C  0.29878293  0.13695851  0.49759824     0.02300
C876        C  0.32492027  0.13647130  0.49011903    -0.15500
C877        C  0.32730042  0.12414620  0.47606112    -0.10300
C878        C  0.30266087  0.11263692  0.46925997     0.09100
C879        C  0.24655455  0.12343527  0.49856380     0.10100
S880        S  0.29781375  0.15366360  0.51550470    -0.24600
H881        H  0.34362259  0.14556475  0.49538417     0.20300
S882        S  0.30254792  0.09911319  0.45065244    -0.30300
H883        H  0.25794660  0.10331640  0.47172828     0.10700
C884        C  0.22414778  0.14182747  0.49444262     0.03900
C885        C  0.19768838  0.13963130  0.50159022    -0.12600
C886        C  0.19315859  0.11939438  0.51281589    -0.08300
C887        C  0.21614458  0.10173901  0.51728377     0.07300
C888        C  0.24240416  0.10368528  0.50997617    -0.13400
S889        S  0.22941058  0.16826341  0.48016994    -0.30300
H890        H  0.18026929  0.15336597  0.49821151     0.11600
S891        S  0.21384959  0.07724856  0.53258085    -0.27400
H892        H  0.25987298  0.08991695  0.51330315     0.08800
H893        H  0.32168478  0.11974387  0.44514091     0.27200
H894        H  0.20225560  0.18097105  0.48120119     0.22000
H895        H  0.19777160  0.09584212  0.54152143     0.27300
H896        H  0.26954411  0.16359948  0.51451017     0.16200
C897        C  0.66154177  0.37797036  0.39000370    -0.11100
C898        C  0.64087013  0.38831686  0.38018941     0.15400
C899        C  0.61768092  0.40435317  0.38571260     0.02300
C900        C  0.61468493  0.40813726  0.40092032    -0.15500
C901        C  0.63457097  0.39659506  0.41086797    -0.10300
C902        C  0.65894546  0.38236411  0.40520922     0.09100
C903        C  0.64236944  0.37974899  0.36449799     0.10100
S904        S  0.59065209  0.41965162  0.37394311    -0.24600
H905        H  0.59605181  0.41935001  0.40501585     0.20300
S906        S  0.68759979  0.36957296  0.41669817    -0.30300
H907        H  0.67958023  0.36595528  0.38579701     0.10700
C908        C  0.66357653  0.39029618  0.35490211     0.03900
C909        C  0.66305131  0.38233235  0.33997786    -0.12600
C910        C  0.64183427  0.36388528  0.33447302    -0.08300
C911        C  0.62155167  0.35219868  0.34438027     0.07300
C912        C  0.62183581  0.36056173  0.35915716    -0.13400
S913        S  0.69044315  0.41491526  0.36148732    -0.30300
H914        H  0.67870681  0.39120897  0.33247623     0.11600
S915        S  0.59539348  0.32577443  0.33910441    -0.27400
H916        H  0.60599084  0.35185828  0.36663564     0.08800
H917        H  0.68677863  0.39330517  0.42620680     0.27200
H918        H  0.70557268  0.41741194  0.34815282     0.22000
H919        H  0.61412912  0.31053739  0.32986186     0.27300
H920        H  0.60852920  0.42381186  0.36167261     0.16200
C921        C  0.77750368  0.41433053  0.51699117    -0.11100
C922        C  0.77082285  0.39578100  0.50536136     0.15400
C923        C  0.79045967  0.37425726  0.50135892     0.02300
C924        C  0.81653646  0.37217992  0.50880650    -0.15500
C925        C  0.82349236  0.39077948  0.52044264    -0.10300
C926        C  0.80329155  0.41180151  0.52472262     0.09100
C927        C  0.74304600  0.39896881  0.49774452     0.10100
S928        S  0.78369281  0.34895009  0.48675514    -0.24600
H929        H  0.83161613  0.35591023  0.50537830     0.20300
S930        S  0.80836147  0.43526582  0.54025857    -0.30300
H931        H  0.76222990  0.43056183  0.52024200     0.10700
C932        C  0.71779638  0.38777929  0.50389303     0.03900
C933        C  0.69230126  0.38894963  0.49580831    -0.12600
C934        C  0.69135915  0.40124715  0.48167356    -0.08300
C935        C  0.71675635  0.41306803  0.47569701     0.07300
C936        C  0.74218428  0.41195720  0.48383436    -0.13400
S937        S  0.71833317  0.37083864  0.52178046    -0.30300
H938        H  0.67300667  0.37994166  0.50047799     0.11600
S939        S  0.71876232  0.42810070  0.45745336    -0.27400
H940        H  0.76169332  0.42041826  0.47908917     0.08800
H941        H  0.81887879  0.41358270  0.54954832     0.27200
H942        H  0.68871416  0.36620134  0.52289906     0.22000
H943        H  0.70336167  0.40562209  0.45090328     0.27300
H944        H  0.75392800  0.34753582  0.48861982     0.16200
C945        C  0.52105296  0.28739891  0.44699951    -0.11100
C946        C  0.52526645  0.26746433  0.45831277     0.15400
C947        C  0.54753772  0.27180014  0.46853890     0.02300
C948        C  0.56455112  0.29636295  0.46747424    -0.15500
C949        C  0.55995140  0.31687628  0.45638340    -0.10300
C950        C  0.53842634  0.31164997  0.44572522     0.09100
C951        C  0.50673587  0.24185846  0.45872506     0.10100
S952        S  0.55538424  0.24685704  0.48315950    -0.24600
H953        H  0.58113956  0.29974745  0.47562021     0.20300
S954        S  0.53297005  0.33396491  0.42977795    -0.30300
H955        H  0.50447857  0.28364016  0.43888071     0.10700
C956        C  0.47893192  0.24307549  0.46458418     0.03900
C957        C  0.46155223  0.21863564  0.46413545    -0.12600
C958        C  0.47142858  0.19281375  0.45800197    -0.08300
C959        C  0.49992966  0.19151384  0.45271386     0.07300
C960        C  0.51701028  0.21609793  0.45294253    -0.13400
S961        S  0.46571528  0.27575829  0.47271584    -0.30300
H962        H  0.43995410  0.21984941  0.46834986     0.11600
S963        S  0.51630967  0.15920939  0.44598182    -0.27400
H964        H  0.53862194  0.21512264  0.44867720     0.08800
H965        H  0.56232380  0.33750939  0.42691609     0.27200
H966        H  0.43896303  0.26500252  0.47711495     0.22000
H967        H  0.50545636  0.14213621  0.45742314     0.27300
H968        H  0.52739870  0.23657354  0.48500111     0.16200
C969        C  0.73531247  0.88206712  0.51316261    -0.11100
C970        C  0.74013945  0.90264313  0.50221614     0.15400
C971        C  0.71895002  0.92339737  0.49931704     0.02300
C972        C  0.69336722  0.92295158  0.50734595    -0.15500
C973        C  0.68810761  0.90172910  0.51796584    -0.10300
C974        C  0.70979038  0.88160045  0.52117615     0.09100
C975        C  0.76728154  0.90141804  0.49387633     0.10100
S976        S  0.72292895  0.95044661  0.48528210    -0.24600
H977        H  0.67695591  0.93854070  0.50482618     0.20300
S978        S  0.70669728  0.85547371  0.53571424    -0.30300
H979        H  0.75171262  0.86638487  0.51556466     0.10700
C980        C  0.78979470  0.92075663  0.49654805     0.03900
C981        C  0.81509051  0.91856141  0.48829217    -0.12600
C982        C  0.81846405  0.89708628  0.47759129    -0.08300
C983        C  0.79561380  0.87798464  0.47485947     0.07300
C984        C  0.77050495  0.88015453  0.48313199    -0.13400
S985        S  0.78672329  0.94737932  0.51087912    -0.30300
H986        H  0.83264733  0.93303753  0.49048806     0.11600
S987        S  0.79663965  0.85112111  0.46061540    -0.27400
H988        H  0.75308278  0.86542657  0.48101656     0.08800
H989        H  0.69156365  0.87350374  0.54536814     0.27200
H990        H  0.81358344  0.96018210  0.50863656     0.22000
H991        H  0.81171711  0.86816687  0.45046664     0.27300
H992        H  0.73975204  0.93401304  0.47565260     0.16200
C993        C  0.50883926  0.98907714  0.51494008    -0.11100
C994        C  0.51223204  0.99236019  0.49968470     0.15400
C995        C  0.53317361  0.97607068  0.49226816     0.02300
C996        C  0.54999682  0.95676918  0.50023831    -0.15500
C997        C  0.54705376  0.95382421  0.51557153    -0.10300
C998        C  0.52565733  0.96976798  0.52291310     0.09100
C999        C  0.49408135  0.01347674  0.49195495     0.10100
S1000       S  0.54004515  0.97933420  0.47276584    -0.24600
H1001       H  0.56622613  0.94463075  0.49446014     0.20300
S1002       S  0.51770359  0.96550519  0.54222213    -0.30300
H1003       H  0.49260736  0.00136457  0.52063840     0.10700
C1004       C  0.47198719  0.00514921  0.48230067     0.03900
C1005       C  0.45604536  0.02623490  0.47494089    -0.12600
C1006       C  0.46145068  0.05545800  0.47729066    -0.08300
C1007       C  0.48371247  0.06357820  0.48698319     0.07300
C1008       C  0.49947668  0.04257449  0.49429429    -0.13400
S1009       S  0.46345144  0.96777552  0.47981081    -0.30300
H1010       H  0.43887491  0.01999620  0.46762067     0.11600
S1011       S  0.49410518  0.10026515  0.48998661    -0.27400
H1012       H  0.51661369  0.04894428  0.50162949     0.08800
H1013       H  0.52132103  0.93561971  0.54221926     0.27200
H1014       H  0.44209209  0.97171101  0.46910145     0.22000
H1015       H  0.49025849  0.10849966  0.47523491     0.27300
H1016       H  0.53185809  0.00812031  0.47139554     0.16200
C1017       C  0.28219694  0.59383707  0.49908720    -0.11100
C1018       C  0.26909577  0.61961127  0.49509693     0.15400
C1019       C  0.28370088  0.64564355  0.49743487     0.02300
C1020       C  0.31059528  0.64536103  0.50420520    -0.15500
C1021       C  0.32354735  0.61956128  0.50853628    -0.10300
C1022       C  0.30933743  0.59344025  0.50548869     0.09100
C1023       C  0.23967309  0.61851389  0.48918641     0.10100
S1024       S  0.26901974  0.67984029  0.49220946    -0.24600
H1025       H  0.32125505  0.66553702  0.50632664     0.20300
S1026       S  0.32478365  0.55881350  0.50904037    -0.30300
H1027       H  0.27114318  0.57379043  0.49714663     0.10700
C1028       C  0.23385937  0.60706813  0.47514593     0.03900
C1029       C  0.20551377  0.60531387  0.47025659    -0.12600
C1030       C  0.18277954  0.61470798  0.47912629    -0.08300
C1031       C  0.18871494  0.62557690  0.49335948     0.07300
C1032       C  0.21705987  0.62768256  0.49813191    -0.13400
S1033       S  0.26260410  0.59566016  0.46323961    -0.30300
H1034       H  0.20108362  0.59722655  0.45931090     0.11600
S1035       S  0.16121413  0.63572962  0.50623976    -0.27400
H1036       H  0.22153155  0.63587990  0.50906788     0.08800
H1037       H  0.35220656  0.56658489  0.50409336     0.27200
H1038       H  0.24534735  0.58472333  0.45186483     0.22000
H1039       H  0.14256724  0.61331574  0.50238507     0.27300
H1040       H  0.25283408  0.66971289  0.48024664     0.16200
C1041       C  0.46698619  0.52061399  0.49335095    -0.11100
C1042       C  0.49405232  0.51579980  0.49946567     0.15400
C1043       C  0.50171746  0.52990073  0.51263494     0.02300
C1044       C  0.48231811  0.54859742  0.51932234    -0.15500
C1045       C  0.45542937  0.55414660  0.51305998    -0.10300
C1046       C  0.44748954  0.53947213  0.50001507     0.09100
C1047       C  0.51360829  0.49545761  0.49205762     0.10100
S1048       S  0.53586072  0.52494462  0.52150930    -0.24600
H1049       H  0.48870170  0.55959347  0.52930827     0.20300
S1050       S  0.41223307  0.54335310  0.49211626    -0.30300
H1051       H  0.46111855  0.50927679  0.48339402     0.10700
C1052       C  0.51665527  0.46713105  0.49704913     0.03900
C1053       C  0.53634806  0.44892934  0.49010400    -0.12600
C1054       C  0.55332174  0.45846340  0.47825240    -0.08300
C1055       C  0.55023563  0.48714888  0.47340390     0.07300
C1056       C  0.53012677  0.50504785  0.48016702    -0.13400
S1057       S  0.49511812  0.45409897  0.51214744    -0.30300
H1058       H  0.53827083  0.42703545  0.49384390     0.11600
S1059       S  0.57212708  0.50285538  0.45921805    -0.27400
H1060       H  0.52800043  0.52698262  0.47646413     0.08800
H1061       H  0.41636864  0.52524583  0.47992542     0.27200
H1062       H  0.50845286  0.42726602  0.51345798     0.22000
H1063       H  0.59779024  0.49170855  0.46489953     0.27300
H1064       H  0.55167407  0.51932145  0.50868104     0.16200
C1065       C  0.47878615  0.73935623  0.54578680    -0.11100
C1066       C  0.49215571  0.74833038  0.53275119     0.15400
C1067       C  0.48809384  0.73233411  0.51971326     0.02300
C1068       C  0.47109460  0.70769023  0.52005049    -0.15500
C1069       C  0.45727399  0.69897253  0.53303647    -0.10300
C1070       C  0.46152278  0.71495801  0.54610450     0.09100
C1071       C  0.51168811  0.77325970  0.53343281     0.10100
S1072       S  0.50344246  0.74256493  0.50225589    -0.24600
H1073       H  0.46801582  0.69564624  0.50997011     0.20300
S1074       S  0.44697195  0.70464882  0.56372588    -0.30300
H1075       H  0.48242034  0.75112185  0.55590914     0.10700
C1076       C  0.50181431  0.80064920  0.53745223     0.03900
C1077       C  0.52136669  0.82321406  0.53873013    -0.12600
C1078       C  0.55066261  0.81912798  0.53604676    -0.08300
C1079       C  0.56048733  0.79153703  0.53213809     0.07300
C1080       C  0.54090925  0.76905912  0.53077544    -0.13400
S1081       S  0.46420713  0.80719543  0.54047892    -0.30300
H1082       H  0.51368517  0.84433704  0.54158509     0.11600
S1083       S  0.59769418  0.78313498  0.52949268    -0.27400
H1084       H  0.54860367  0.74787777  0.52798656     0.08800
H1085       H  0.45233909  0.67526183  0.56184027     0.27200
H1086       H  0.46669942  0.83615427  0.54449479     0.22000
H1087       H  0.60707818  0.79933115  0.54163677     0.27300
H1088       H  0.50302299  0.77219547  0.50491978     0.16200
C1089       C  0.50251657  0.28100826  0.97326323    -0.11100
C1090       C  0.50050599  0.25950323  0.96256986     0.15400
C1091       C  0.47936388  0.26141954  0.95154055     0.02300
C1092       C  0.46103935  0.28501257  0.95128808    -0.15500
C1093       C  0.46366544  0.30719295  0.96164682    -0.10300
C1094       C  0.48422721  0.30463157  0.97302748     0.09100
C1095       C  0.52018698  0.23490932  0.96346618     0.10100
S1096       S  0.47530237  0.23497965  0.93721285    -0.24600
H1097       H  0.44546564  0.28664460  0.94249343     0.20300
S1098       S  0.48774707  0.33010959  0.98782853    -0.30300
H1099       H  0.51832131  0.27919893  0.98194375     0.10700
C1100       C  0.54933819  0.23772437  0.95989083     0.03900
C1101       C  0.56708549  0.21363657  0.96053072    -0.12600
C1102       C  0.55624075  0.18675377  0.96461145    -0.08300
C1103       C  0.52715364  0.18431708  0.96871605     0.07300
C1104       C  0.50943749  0.20832320  0.96793433    -0.13400
S1105       S  0.56360855  0.27163704  0.95378188    -0.30300
H1106       H  0.58930083  0.21554560  0.95735134     0.11600
S1107       S  0.51149264  0.15161447  0.97550924    -0.27400
H1108       H  0.48710554  0.20636286  0.97093796     0.08800
H1109       H  0.45816019  0.33460302  0.98932876     0.27200
H1110       H  0.59219573  0.26276111  0.95240986     0.22000
H1111       H  0.53570389  0.14328059  0.98363378     0.27300
H1112       H  0.50438944  0.22775165  0.93622981     0.16200
C1113       C  0.62390255  0.63582741  0.10543189    -0.11100
C1114       C  0.64112590  0.61549813  0.11243380     0.15400
C1115       C  0.65194290  0.59218850  0.10426108     0.02300
C1116       C  0.64535194  0.58987394  0.08923111    -0.15500
C1117       C  0.62845829  0.61058403  0.08215180    -0.10300
C1118       C  0.61715555  0.63346684  0.09051589     0.09100
C1119       C  0.64488495  0.61811954  0.12853567     0.10100
S1120       S  0.67451488  0.56509360  0.11230589    -0.24600
H1121       H  0.65415544  0.57225919  0.08293940     0.20300
S1122       S  0.59264045  0.65949328  0.08309403    -0.30300
H1123       H  0.61488259  0.65325420  0.11179098     0.10700
C1124       C  0.66099922  0.64053498  0.13476753     0.03900
C1125       C  0.66109083  0.64418319  0.15010761    -0.12600
C1126       C  0.64505047  0.62609164  0.15931085    -0.08300
C1127       C  0.62988029  0.60293486  0.15300425     0.07300
C1128       C  0.62979237  0.59937776  0.13771922    -0.13400
S1129       S  0.68103862  0.66471501  0.12315713    -0.30300
H1130       H  0.67284723  0.66182573  0.15490990     0.11600
S1131       S  0.61053032  0.57696310  0.16378849    -0.27400
H1132       H  0.61745840  0.58211615  0.13290048     0.08800
H1133       H  0.57757677  0.63970298  0.07435352     0.27200
H1134       H  0.69165703  0.68220240  0.13452282     0.22000
H1135       H  0.63081546  0.57594410  0.17521913     0.27300
H1136       H  0.68621064  0.58246373  0.12342194     0.16200
C1137       C  0.53661158  0.53072306  0.99005318    -0.11100
C1138       C  0.53369097  0.50297412  0.99566161     0.15400
C1139       C  0.54822251  0.49533527  0.00872420     0.02300
C1140       C  0.56443383  0.51593903  0.01616674    -0.15500
C1141       C  0.56705049  0.54389925  0.01067911    -0.10300
C1142       C  0.55272000  0.55133873  0.99749109     0.09100
C1143       C  0.51360941  0.48334141  0.98819829     0.10100
S1144       S  0.54674931  0.45982939  0.01649735    -0.24600
H1145       H  0.57539745  0.50998189  0.02622829     0.20300
S1146       S  0.55220822  0.58719632  0.99015864    -0.30300
H1147       H  0.52517367  0.53671347  0.98013324     0.10700
C1148       C  0.48695090  0.47655441  0.99448961     0.03900
C1149       C  0.46830510  0.45825113  0.98694946    -0.12600
C1150       C  0.47565151  0.44653577  0.97319560    -0.08300
C1151       C  0.50267100  0.45318750  0.96702379     0.07300
C1152       C  0.52104722  0.47190942  0.97445593    -0.13400
S1153       S  0.47621856  0.49196516  0.01189414    -0.30300
H1154       H  0.44768632  0.45332959  0.99172745     0.11600
S1155       S  0.51576418  0.43740358  0.95021841    -0.27400
H1156       H  0.54164990  0.47705331  0.96968253     0.08800
H1157       H  0.54908803  0.60056849  0.00396202     0.27200
H1158       H  0.45074350  0.47629219  0.01351348     0.22000
H1159       H  0.50684592  0.40954641  0.95391659     0.27300
H1160       H  0.54194672  0.44534878  0.00315260     0.16200
C1161       C  0.36207323  0.88057518  0.10389270    -0.11100
C1162       C  0.38473591  0.88226980  0.11393333     0.15400
C1163       C  0.41268268  0.88756118  0.10867532     0.02300
C1164       C  0.41733595  0.89018741  0.09348778    -0.15500
C1165       C  0.39484808  0.88701635  0.08336200    -0.10300
C1166       C  0.36672219  0.88328028  0.08873564     0.09100
C1167       C  0.37859741  0.87674622  0.12966061     0.10100
S1168       S  0.44347694  0.89023650  0.12059107    -0.24600
H1169       H  0.43895821  0.89329722  0.08952176     0.20300
S1170       S  0.33577513  0.88246288  0.07692119    -0.30300
H1171       H  0.34055957  0.87700634  0.10792064     0.10700
C1172       C  0.37792598  0.89884556  0.14018872     0.03900
C1173       C  0.37344974  0.89201139  0.15507406    -0.12600
C1174       C  0.36927595  0.86353518  0.15962222    -0.08300
C1175       C  0.36925744  0.84155827  0.14890322     0.07300
C1176       C  0.37362112  0.84845992  0.13408041    -0.13400
S1177       S  0.38265588  0.93565325  0.13465706    -0.30300
H1178       H  0.37330090  0.90891096  0.16323419     0.11600
S1179       S  0.36566959  0.80418970  0.15342216    -0.27400
H1180       H  0.37410085  0.83149034  0.12594244     0.08800
H1181       H  0.34635883  0.90280796  0.06686958     0.27200
H1182       H  0.37720024  0.94788180  0.14853861     0.22000
H1183       H  0.38427492  0.80538049  0.16558594     0.27300
H1184       H  0.43305569  0.87309115  0.13210734     0.16200
C1185       C  0.55162531  0.99611176  0.98739682    -0.11100
C1186       C  0.52832310  0.00517543  0.99593675     0.15400
C1187       C  0.52357644  0.03472567  0.99797802     0.02300
C1188       C  0.54218944  0.05441493  0.99152666    -0.15500
C1189       C  0.56507414  0.04542968  0.98266627    -0.10300
C1190       C  0.56996261  0.01584747  0.98070188     0.09100
C1191       C  0.50990134  0.98333095  0.00292290     0.10100
S1192       S  0.49374923  0.04878642  0.00827667    -0.24600
H1193       H  0.53810316  0.07705605  0.99301225     0.20300
S1194       S  0.59961769  0.00184415  0.97029032    -0.30300
H1195       H  0.55567202  0.97343765  0.98604899     0.10700
C1196       C  0.49369244  0.96402777  0.99440888     0.03900
C1197       C  0.47633366  0.94385925  0.00149750    -0.12600
C1198       C  0.47475106  0.94257557  0.01693931    -0.08300
C1199       C  0.49183161  0.96134874  0.02543145     0.07300
C1200       C  0.50894656  0.98164422  0.01834008    -0.13400
S1201       S  0.49384119  0.96596335  0.97452123    -0.30300
H1202       H  0.46325111  0.92957467  0.99495991     0.11600
S1203       S  0.49384312  0.95973150  0.04524945    -0.27400
H1204       H  0.52195342  0.99603367  0.02487996     0.08800
H1205       H  0.61921913  0.02271600  0.97506284     0.27200
H1206       H  0.47949953  0.93994661  0.97204132     0.22000
H1207       H  0.49343876  0.92965458  0.04591397     0.27300
H1208       H  0.47466373  0.02654227  0.00481292     0.16200
C1209       C  0.47391795  0.75349956  0.02328971    -0.11100
C1210       C  0.50053105  0.75286550  0.03037155     0.15400
C1211       C  0.50949840  0.77683955  0.03859544     0.02300
C1212       C  0.49185522  0.80089449  0.03949548    -0.15500
C1213       C  0.46498310  0.80161242  0.03257978    -0.10300
C1214       C  0.45592340  0.77735073  0.02444260     0.09100
C1215       C  0.51840377  0.72684235  0.02922033     0.10100
S1216       S  0.54319621  0.77805475  0.04822195    -0.24600
H1217       H  0.49926616  0.81925255  0.04570576     0.20300
S1218       S  0.42138577  0.77480787  0.01577599    -0.30300
H1219       H  0.46689241  0.73500672  0.01706143     0.10700
C1220       C  0.51192464  0.70209340  0.03740411     0.03900
C1221       C  0.53064185  0.67870944  0.03697777    -0.12600
C1222       C  0.55582849  0.67938911  0.02850217    -0.08300
C1223       C  0.56134053  0.70380523  0.01966122     0.07300
C1224       C  0.54285421  0.72733032  0.02031556    -0.13400
S1225       S  0.48064094  0.70090983  0.04906032    -0.30300
H1226       H  0.52605883  0.66015662  0.04371454     0.11600
S1227       S  0.59103800  0.70626799  0.00709645    -0.27400
H1228       H  0.54755005  0.74624119  0.01383238     0.08800
H1229       H  0.40652566  0.78604199  0.02794986     0.27200
H1230       H  0.48464905  0.67294875  0.05439818     0.22000
H1231       H  0.58772969  0.67819602  0.00174850     0.27300
H1232       H  0.54380853  0.74893311  0.05206858     0.16200
C1233       C  0.75138453  0.59485045  0.01588344    -0.11100
C1234       C  0.75551445  0.60984765  0.00267722     0.15400
C1235       C  0.73254996  0.62517799  0.99643876     0.02300
C1236       C  0.70589770  0.62472596  0.00336809    -0.15500
C1237       C  0.70157441  0.60958662  0.01654965    -0.10300
C1238       C  0.72487352  0.59490904  0.02300517     0.09100
C1239       C  0.78384645  0.60873126  0.99552711     0.10100
S1240       S  0.73577198  0.64554192  0.97962774    -0.24600
H1241       H  0.68827861  0.63611576  0.99831312     0.20300
S1242       S  0.72264923  0.57685195  0.04052022    -0.30300
H1243       H  0.76908748  0.58329295  0.02075831     0.10700
C1244       C  0.80746749  0.62342520  0.00144800     0.03900
C1245       C  0.83377477  0.62239474  0.99408461    -0.12600
C1246       C  0.83693980  0.60716458  0.98082198    -0.08300
C1247       C  0.81291542  0.59284654  0.97482288     0.07300
C1248       C  0.78687155  0.59339288  0.98236646    -0.13400
S1249       S  0.80382801  0.64433288  0.01808885    -0.30300
H1250       H  0.85197722  0.63356218  0.99867841     0.11600
S1251       S  0.81337553  0.57504909  0.95721202    -0.27400
H1252       H  0.76853006  0.58244930  0.97773079     0.08800
H1253       H  0.70554084  0.59793415  0.04719365     0.27200
H1254       H  0.83240777  0.65351601  0.01891815     0.22000
H1255       H  0.82840733  0.59712918  0.95004556     0.27300
H1256       H  0.76456994  0.65324484  0.98153336     0.16200
C1257       C  0.29905262  0.87424063  0.99594616    -0.11100
C1258       C  0.27940666  0.89441694  0.00118579     0.15400
C1259       C  0.28743626  0.91303748  0.01270828     0.02300
C1260       C  0.31471378  0.91061927  0.01893203    -0.15500
C1261       C  0.33434344  0.89017061  0.01381503    -0.10300
C1262       C  0.32648610  0.87221984  0.00193447     0.09100
C1263       C  0.25076801  0.89531659  0.99435456     0.10100
S1264       S  0.26384059  0.94000843  0.02006155    -0.24600
H1265       H  0.32050417  0.92456037  0.02800036     0.20300
S1266       S  0.35074925  0.84718797  0.99347807    -0.30300
H1267       H  0.29304461  0.86020192  0.98694847     0.10700
C1268       C  0.24675866  0.90693224  0.98019055     0.03900
C1269       C  0.21956481  0.90608495  0.97374846    -0.12600
C1270       C  0.19624952  0.89381764  0.98118429    -0.08300
C1271       C  0.20014577  0.88339166  0.99568830     0.07300
C1272       C  0.22741147  0.88386981  0.00201327    -0.13400
S1273       S  0.27631525  0.92291053  0.97036576    -0.30300
H1274       H  0.21661032  0.91434075  0.96270360     0.11600
S1275       S  0.17114421  0.87029203  0.00689581    -0.27400
H1276       H  0.23045845  0.87541156  0.01302438     0.08800
H1277       H  0.37482938  0.86509918  0.99462140     0.27200
H1278       H  0.26097692  0.93053667  0.95763259     0.22000
H1279       H  0.15124457  0.89062419  0.00185528     0.27300
H1280       H  0.24798451  0.94453057  0.00712440     0.16200
C1281       C  0.01175315  0.71443658  0.94799381    -0.11100
C1282       C  0.00738230  0.73537229  0.95880315     0.15400
C1283       C  0.98486270  0.73195519  0.96902007     0.02300
C1284       C  0.96808301  0.70715351  0.96853886    -0.15500
C1285       C  0.97261241  0.68591431  0.95781112    -0.10300
C1286       C  0.99441797  0.69013349  0.94719656     0.09100
C1287       C  0.02625986  0.76077025  0.95867399     0.10100
S1288       S  0.97619528  0.75831218  0.98286220    -0.24600
H1289       H  0.95130237  0.70446431  0.97665137     0.20300
S1290       S  0.00051138  0.66627302  0.93191943    -0.30300
H1291       H  0.02858949  0.71733678  0.93992176     0.10700
C1292       C  0.04700774  0.76543370  0.96966387     0.03900
C1293       C  0.06483656  0.78952045  0.96872693    -0.12600
C1294       C  0.06262407  0.80887466  0.95691259    -0.08300
C1295       C  0.04234982  0.80344320  0.94566171     0.07300
C1296       C  0.02423113  0.77978519  0.94679697    -0.13400
S1297       S  0.05131262  0.74035456  0.98464489    -0.30300
H1298       H  0.08045580  0.79338540  0.97729401     0.11600
S1299       S  0.03931440  0.82480194  0.92919671    -0.27400
H1300       H  0.00870963  0.77579475  0.93817020     0.08800
H1301       H  0.97131244  0.66334184  0.92851710     0.27200
H1302       H  0.07256133  0.75566288  0.99226530     0.22000
H1303       H  0.06899382  0.82713891  0.92708371     0.27300
H1304       H  0.98756505  0.78217005  0.97549350     0.16200
C1305       C  0.87606981  0.10470447  0.13693777    -0.11100
C1306       C  0.88179621  0.12806238  0.12769611     0.15400
C1307       C  0.88179332  0.15596063  0.13367104     0.02300
C1308       C  0.87582799  0.15989039  0.14865520    -0.15500
C1309       C  0.87062183  0.13649415  0.15799009    -0.10300
C1310       C  0.87047024  0.10858774  0.15196039     0.09100
C1311       C  0.88675454  0.12278983  0.11179879     0.10100
S1312       S  0.89008474  0.18729058  0.12286394    -0.24600
H1313       H  0.87639042  0.18133905  0.15318100     0.20300
S1314       S  0.86225409  0.07718646  0.16269141    -0.30300
H1315       H  0.87564220  0.08329847  0.13235579     0.10700
C1316       C  0.91180605  0.10925917  0.10673560     0.03900
C1317       C  0.91606347  0.10565491  0.09154236    -0.12600
C1318       C  0.89592679  0.11559226  0.08127982    -0.08300
C1319       C  0.87028791  0.12810909  0.08645224     0.07300
C1320       C  0.86613670  0.13179022  0.10160433    -0.13400
S1321       S  0.93911166  0.09809157  0.11956622    -0.30300
H1322       H  0.93569372  0.09609196  0.08761109     0.11600
S1323       S  0.84172650  0.13911021  0.07438065    -0.27400
H1324       H  0.84663272  0.14170975  0.10551097     0.08800
H1325       H  0.84153357  0.09069399  0.17150098     0.27200
H1326       H  0.95871755  0.08803353  0.10902667     0.22000
H1327       H  0.84543715  0.11657410  0.06427960     0.27300
H1328       H  0.90925699  0.17369660  0.11321350     0.16200
C1329       C  0.79748338  0.13081064  0.99852414    -0.11100
C1330       C  0.77712204  0.11249642  0.00481932     0.15400
C1331       C  0.78546327  0.09382583  0.01627317     0.02300
C1332       C  0.81388202  0.09367052  0.02101560    -0.15500
C1333       C  0.83421506  0.11233236  0.01489677    -0.10300
C1334       C  0.82581393  0.13095209  0.00338633     0.09100
C1335       C  0.74800162  0.11189445  0.99844576     0.10100
S1336       S  0.76076737  0.07026876  0.02555723    -0.24600
H1337       H  0.81992111  0.07947353  0.02993345     0.20300
S1338       S  0.85027673  0.15444546  0.99394351    -0.30300
H1339       H  0.79135739  0.14469076  0.98948657     0.10700
C1340       C  0.73008127  0.13610693  0.99870424     0.03900
C1341       C  0.70320701  0.13474258  0.99192221    -0.12600
C1342       C  0.69361003  0.10957196  0.98500459    -0.08300
C1343       C  0.71126094  0.08497063  0.98537925     0.07300
C1344       C  0.73838129  0.08665353  0.99175161    -0.13400
S1345       S  0.74117034  0.16863592  0.00783846    -0.30300
H1346       H  0.68979707  0.15358995  0.99181319     0.11600
S1347       S  0.70035573  0.05051321  0.97846853    -0.27400
H1348       H  0.75205390  0.06794766  0.99165958     0.08800
H1349       H  0.87251733  0.13424222  0.99330869     0.27200
H1350       H  0.71593659  0.18423187  0.00535811     0.22000
H1351       H  0.67285139  0.05199483  0.98470130     0.27300
H1352       H  0.73670289  0.08797522  0.02391848     0.16200
C1353       C  0.00543216  0.03582344  0.99429760    -0.11100
C1354       C  0.00352375  0.00712800  0.99868498     0.15400
C1355       C  0.98518488  0.99966633  0.01045121     0.02300
C1356       C  0.96927779  0.02097718  0.01750553    -0.15500
C1357       C  0.97079908  0.04963107  0.01294936    -0.10300
C1358       C  0.98950299  0.05710930  0.00130447     0.09100
C1359       C  0.02258252  0.98605230  0.99149110     0.10100
S1360       S  0.98079560  0.96340577  0.01688182    -0.24600
H1361       H  0.95505722  0.01499526  0.02642097     0.20300
S1362       S  0.99541844  0.09346821  0.99538393    -0.30300
H1363       H  0.02010515  0.04179585  0.98557266     0.10700
C1364       C  0.02069611  0.98009785  0.97628289     0.03900
C1365       C  0.04027388  0.96114785  0.96984454    -0.12600
C1366       C  0.06150255  0.94774624  0.97831362    -0.08300
C1367       C  0.06333914  0.95386156  0.99355392     0.07300
C1368       C  0.04388195  0.97283305  0.99993866    -0.13400
S1369       S  0.99275056  0.99577569  0.96517077    -0.30300
H1370       H  0.03865557  0.95621870  0.95821464     0.11600
S1371       S  0.09066508  0.93924588  0.00535793    -0.27400
H1372       H  0.04569040  0.97780379  0.01157119     0.08800
H1373       H  0.99487796  0.10506859  0.00967548     0.27200
H1374       H  0.00060242  0.98294129  0.95175123     0.22000
H1375       H  0.11261356  0.94122111  0.99480714     0.27300
H1376       H  0.98652420  0.95013145  0.00330193     0.16200
C1377       C  0.14156744  0.40021878  0.10937520    -0.11100
C1378       C  0.14531931  0.37274769  0.11526621     0.15400
C1379       C  0.14765598  0.34913703  0.10568238     0.02300
C1380       C  0.14459585  0.35325083  0.09051954    -0.15500
C1381       C  0.13992461  0.38061685  0.08455382    -0.10300
C1382       C  0.13948928  0.40449190  0.09414203     0.09100
C1383       C  0.14505773  0.36911089  0.13143981     0.10100
S1384       S  0.15414237  0.31321375  0.11213527    -0.24600
H1385       H  0.14538902  0.33473359  0.08334727     0.20300
S1386       S  0.13732690  0.44087948  0.08770286    -0.30300
H1387       H  0.14027648  0.41845673  0.11671891     0.10700
C1388       C  0.16814920  0.37801496  0.14026879     0.03900
C1389       C  0.16674991  0.37423840  0.15559282    -0.12600
C1390       C  0.14273026  0.36162357  0.16223587    -0.08300
C1391       C  0.12010690  0.35171439  0.15322179     0.07300
C1392       C  0.12132695  0.35600752  0.13799858    -0.13400
S1393       S  0.19955717  0.39367787  0.13197890    -0.30300
H1394       H  0.18420176  0.38157073  0.16245339     0.11600
S1395       S  0.08981478  0.33216994  0.16029632    -0.27400
H1396       H  0.10384337  0.34862516  0.13114604     0.08800
H1397       H  0.15543364  0.43642534  0.07553431     0.27200
H1398       H  0.21581655  0.39557998  0.14497657     0.22000
H1399       H  0.10569189  0.31645625  0.17068166     0.27300
H1400       H  0.17009495  0.32108030  0.12462176     0.16200
C1401       C  0.29011650  0.36407568  0.98421757    -0.11100
C1402       C  0.28232999  0.38927970  0.99154773     0.15400
C1403       C  0.30017976  0.41356614  0.99049769     0.02300
C1404       C  0.32497245  0.41228182  0.98190435    -0.15500
C1405       C  0.33305432  0.38695045  0.97467979    -0.10300
C1406       C  0.31499955  0.36270737  0.97569629     0.09100
C1407       C  0.25517087  0.38960314  0.99991045     0.10100
S1408       S  0.29301677  0.44651441  0.00017864    -0.24600
H1409       H  0.33865299  0.43096155  0.98133781     0.20300
S1410       S  0.32164500  0.32984276  0.96590439    -0.30300
H1411       H  0.27631605  0.34548362  0.98488297     0.10700
C1412       C  0.23152467  0.40586551  0.99517958     0.03900
C1413       C  0.20630284  0.40555935  0.00351627    -0.12600
C1414       C  0.20392660  0.38858918  0.01620914    -0.08300
C1415       C  0.22761680  0.37220700  0.02088621     0.07300
C1416       C  0.25289298  0.37281199  0.01266403    -0.13400
S1417       S  0.23283991  0.42560093  0.97807309    -0.30300
H1418       H  0.18793705  0.41766482  0.99982079     0.11600
S1419       S  0.22719975  0.35068883  0.03738719    -0.27400
H1420       H  0.27105486  0.36028793  0.01629416     0.08800
H1421       H  0.33130810  0.34339821  0.95298158     0.27200
H1422       H  0.20547781  0.43785376  0.97911751     0.22000
H1423       H  0.20964183  0.36931694  0.04551930     0.27300
H1424       H  0.27886881  0.43395466  0.01221856     0.16200
C1425       C  0.01624475  0.53670209  0.99642147    -0.11100
C1426       C  0.00936959  0.50752957  0.99629008     0.15400
C1427       C  0.98428004  0.49830460  0.98904891     0.02300
C1428       C  0.96728570  0.51827363  0.98162893    -0.15500
C1429       C  0.97415971  0.54750490  0.98170857    -0.10300
C1430       C  0.99909981  0.55672354  0.98914983     0.09100
C1431       C  0.02915172  0.48722147  0.00349583     0.10100
S1432       S  0.97257385  0.46150234  0.98904324    -0.24600
H1433       H  0.94810332  0.51101943  0.97607519     0.20300
S1434       S  0.01108575  0.59340383  0.98915760    -0.30300
H1435       H  0.03554321  0.54381713  0.00192063     0.10700
C1436       C  0.04596504  0.46810407  0.99521941     0.03900
C1437       C  0.06357326  0.44851095  0.00255912    -0.12600
C1438       C  0.06486759  0.44757980  0.01804104    -0.08300
C1439       C  0.04787409  0.46688528  0.02627470     0.07300
C1440       C  0.03069331  0.48678169  0.01891201    -0.13400
S1441       S  0.04541960  0.46899115  0.97530818    -0.30300
H1442       H  0.07659893  0.43395011  0.99617226     0.11600
S1443       S  0.04558830  0.46616276  0.04608459    -0.27400
H1444       H  0.01757712  0.50138386  0.02525428     0.08800
H1445       H  0.00372270  0.59866432  0.97436957     0.27200
H1446       H  0.06550254  0.44706814  0.97302057     0.22000
H1447       H  0.04336763  0.43617502  0.04690460     0.27300
H1448       H  0.98482890  0.45396966  0.00263709     0.16200
C1449       C  0.02287627  0.20950602  0.03369022    -0.11100
C1450       C  0.01216675  0.23485430  0.02761736     0.15400
C1451       C  0.98435925  0.23527433  0.02165666     0.02300
C1452       C  0.96716152  0.21092289  0.02283253    -0.15500
C1453       C  0.97738160  0.18576886  0.02947750    -0.10300
C1454       C  0.00605044  0.18485357  0.03444744     0.09100
C1455       C  0.03002320  0.26079597  0.02852049     0.10100
S1456       S  0.96948924  0.26634027  0.01271751    -0.24600
H1457       H  0.94544545  0.21182734  0.01872044     0.20300
S1458       S  0.02281563  0.15296178  0.04149568    -0.30300
H1459       H  0.04449011  0.20901721  0.03797784     0.10700
C1460       C  0.02420322  0.28229296  0.03894172     0.03900
C1461       C  0.04271401  0.30570464  0.04012090    -0.12600
C1462       C  0.06723517  0.30801333  0.03122129    -0.08300
C1463       C  0.07300425  0.28611066  0.02082026     0.07300
C1464       C  0.05422656  0.26296030  0.01953213    -0.13400
S1465       S  0.99368637  0.27947987  0.05107301    -0.30300
H1466       H  0.03802834  0.32228305  0.04808255     0.11600
S1467       S  0.10433192  0.28549484  0.00929495    -0.27400
H1468       H  0.05883785  0.24610328  0.01168439     0.08800
H1469       H  0.01000918  0.13460017  0.03114815     0.27200
H1470       H  0.99899840  0.30448211  0.05925042     0.22000
H1471       H  0.12324513  0.29061526  0.02106138     0.27300
H1472       H  0.99561609  0.27721353  0.00750181     0.16200
C1473       C  0.64249647  0.09935616  0.85813550    -0.11100
C1474       C  0.64414658  0.12282104  0.86770739     0.15400
C1475       C  0.65134486  0.15002373  0.86202209     0.02300
C1476       C  0.65621837  0.15322947  0.84691181    -0.15500
C1477       C  0.65339214  0.12999389  0.83722571    -0.10300
C1478       C  0.64716090  0.10259571  0.84301795     0.09100
C1479       C  0.63935823  0.11812150  0.88362731     0.10100
S1480       S  0.65361945  0.18165059  0.87336143    -0.24600
H1481       H  0.66091557  0.17434497  0.84260946     0.20300
S1482       S  0.64597582  0.07078237  0.83182990    -0.30300
H1483       H  0.63779349  0.07829999  0.86251811     0.10700
C1484       C  0.61239179  0.11002485  0.88917381     0.03900
C1485       C  0.60861927  0.10723512  0.90443438    -0.12600
C1486       C  0.63122650  0.11245713  0.91425672    -0.08300
C1487       C  0.65854089  0.11925297  0.90856149     0.07300
C1488       C  0.66221576  0.12220324  0.89336480    -0.13400
S1489       S  0.58238388  0.10479824  0.87692926    -0.30300
H1490       H  0.58770289  0.10201221  0.90876697     0.11600
S1491       S  0.68974864  0.12364717  0.91997858    -0.27400
H1492       H  0.68310076  0.12774794  0.88905841     0.08800
H1493       H  0.66910839  0.07906180  0.82288639     0.27200
H1494       H  0.56264130  0.09617573  0.88774553     0.22000
H1495       H  0.68253244  0.10144066  0.92977342     0.27300
H1496       H  0.63216063  0.17353481  0.88337405     0.16200
C1497       C  0.36774551  0.36053210  0.85537094    -0.11100
C1498       C  0.38606451  0.38305473  0.85924803     0.15400
C1499       C  0.39936867  0.39914769  0.84803879     0.02300
C1500       C  0.39544813  0.39134771  0.83329601    -0.15500
C1501       C  0.37770921  0.36829266  0.82932353    -0.10300
C1502       C  0.36302069  0.35330389  0.84059162     0.09100
C1503       C  0.39278924  0.38755087  0.87502461     0.10100
S1504       S  0.42184255  0.42962018  0.85185554    -0.24600
H1505       H  0.40648185  0.40342695  0.82483364     0.20300
S1506       S  0.33965586  0.32352972  0.83699787    -0.30300
H1507       H  0.35749901  0.34809979  0.86396386     0.10700
C1508       C  0.37245628  0.39858375  0.88494221     0.03900
C1509       C  0.37929895  0.40066449  0.89996242    -0.12600
C1510       C  0.40610959  0.39189759  0.90529295    -0.08300
C1511       C  0.42694631  0.38225664  0.89512780     0.07300
C1512       C  0.41992748  0.37985692  0.88019610    -0.13400
S1513       S  0.33779267  0.40992061  0.87846481    -0.30300
H1514       H  0.36331118  0.40819609  0.90765777     0.11600
S1515       S  0.46299584  0.37327589  0.90036347    -0.27400
H1516       H  0.43574443  0.37183443  0.87251389     0.08800
H1517       H  0.32066650  0.34010700  0.82854237     0.27200
H1518       H  0.32800409  0.42097235  0.89196806     0.22000
H1519       H  0.46548061  0.39536966  0.91082064     0.27300
H1520       H  0.40814472  0.43760596  0.86501605     0.16200
C1521       C  0.47218149  0.23747606  0.78527496    -0.11100
C1522       C  0.49934893  0.24902462  0.78274763     0.15400
C1523       C  0.50205396  0.27797148  0.77857032     0.02300
C1524       C  0.47773421  0.29526106  0.77804588    -0.15500
C1525       C  0.45052829  0.28408921  0.78115717    -0.10300
C1526       C  0.44772181  0.25450825  0.78423871     0.09100
C1527       C  0.52454849  0.23052735  0.78472291     0.10100
S1528       S  0.53594910  0.29419991  0.77405004    -0.24600
H1529       H  0.48018107  0.31773657  0.77540264     0.20300
S1530       S  0.41367400  0.23692255  0.78641671    -0.30300
H1531       H  0.47004654  0.21501650  0.78803730     0.10700
C1532       C  0.54270220  0.23359398  0.79699096     0.03900
C1533       C  0.56742689  0.21679903  0.79793857    -0.12600
C1534       C  0.57442483  0.19710357  0.78680228    -0.08300
C1535       C  0.55610911  0.19436669  0.77445805     0.07300
C1536       C  0.53110687  0.21059319  0.77374373    -0.13400
S1537       S  0.53416844  0.25869894  0.81147549    -0.30300
H1538       H  0.58128961  0.21891774  0.80742606     0.11600
S1539       S  0.56434247  0.17235541  0.75872197    -0.27400
H1540       H  0.51728469  0.20865422  0.76421093     0.08800
H1541       H  0.40012595  0.25247526  0.77512232     0.27200
H1542       H  0.55924870  0.25470458  0.81975721     0.22000
H1543       H  0.59310400  0.18109828  0.75799899     0.27300
H1544       H  0.54901237  0.26931538  0.76857688     0.16200
C1545       C  0.11735205  0.13889657  0.60266578    -0.11100
C1546       C  0.13385633  0.11759772  0.60940247     0.15400
C1547       C  0.14327137  0.09405483  0.60094178     0.02300
C1548       C  0.13640503  0.09265080  0.58592124    -0.15500
C1549       C  0.12053289  0.11440438  0.57905948    -0.10300
C1550       C  0.11025256  0.13739833  0.58772426     0.09100
C1551       C  0.13931009  0.12003263  0.62543794     0.10100
S1552       S  0.16445078  0.06541871  0.60854957    -0.24600
H1553       H  0.14428987  0.07484438  0.57945171     0.20300
S1554       S  0.08679607  0.16475995  0.58066170    -0.30300
H1555       H  0.10938899  0.15656322  0.60922004     0.10700
C1556       C  0.15791834  0.14097250  0.63115745     0.03900
C1557       C  0.16042050  0.14428733  0.64648621    -0.12600
C1558       C  0.14468977  0.12705258  0.65628406    -0.08300
C1559       C  0.12717131  0.10506260  0.65040534     0.07300
C1560       C  0.12439542  0.10211433  0.63512098    -0.13400
S1561       S  0.17841379  0.16350289  0.61889984    -0.30300
H1562       H  0.17409440  0.16094651  0.65084111     0.11600
S1563       S  0.10834244  0.07954140  0.66167853    -0.27400
H1564       H  0.11037461  0.08575294  0.63071162     0.08800
H1565       H  0.07072027  0.14596327  0.57181954     0.27200
H1566       H  0.19275241  0.17912813  0.62989119     0.22000
H1567       H  0.13115139  0.07585728  0.67157865     0.27300
H1568       H  0.17757963  0.08164338  0.61969091     0.16200
C1569       C  0.28065319  0.24799833  0.76201188    -0.11100
C1570       C  0.27356974  0.25331114  0.74726264     0.15400
C1571       C  0.28722897  0.27586882  0.73966285     0.02300
C1572       C  0.30791737  0.29228129  0.74690403    -0.15500
C1573       C  0.31496366  0.28715018  0.76171609    -0.10300
C1574       C  0.30149813  0.26428120  0.76922589     0.09100
C1575       C  0.25245153  0.23449663  0.73997882     0.10100
S1576       S  0.27914765  0.28492233  0.72077606    -0.24600
H1577       H  0.31811055  0.30967511  0.74100382     0.20300
S1578       S  0.31124349  0.25353186  0.78762403    -0.30300
H1579       H  0.27049270  0.23043098  0.76779467     0.10700
C1580       C  0.26072229  0.21443288  0.72921208     0.03900
C1581       C  0.23973920  0.19836690  0.72189373    -0.12600
C1582       C  0.21066371  0.20153548  0.72535710    -0.08300
C1583       C  0.20256070  0.22146713  0.73634846     0.07300
C1584       C  0.22353375  0.23744823  0.74361419    -0.13400
S1585       S  0.29806551  0.20861243  0.72519114    -0.30300
H1586       H  0.24603505  0.18278124  0.71369311     0.11600
S1587       S  0.16586033  0.22862183  0.74114690    -0.27400
H1588       H  0.21721466  0.25295693  0.75186979     0.08800
H1589       H  0.34076395  0.25755133  0.78547350     0.27200
H1590       H  0.29393591  0.18955387  0.71338947     0.22000
H1591       H  0.15579395  0.22761573  0.72654283     0.27300
H1592       H  0.25059311  0.27561681  0.72092969     0.16200
C1593       C  0.86490048  0.36082555  0.63983022    -0.11100
C1594       C  0.88826481  0.37667008  0.63470366     0.15400
C1595       C  0.90820954  0.38775151  0.64483198     0.02300
C1596       C  0.90462031  0.38226234  0.65985801    -0.15500
C1597       C  0.88141008  0.36601723  0.66510293    -0.10300
C1598       C  0.86145781  0.35497981  0.65482873     0.09100
C1599       C  0.89247643  0.37876996  0.61865240     0.10100
S1600       S  0.93914990  0.40811385  0.63927453    -0.24600
H1601       H  0.92017146  0.39085596  0.66751989     0.20300
S1602       S  0.83239671  0.33164719  0.65984181    -0.30300
H1603       H  0.84989617  0.35186497  0.63198183     0.10700
C1604       C  0.90770946  0.35755551  0.61097069     0.03900
C1605       C  0.90960602  0.35907605  0.59559039    -0.12600
C1606       C  0.89655638  0.38142977  0.58772234    -0.08300
C1607       C  0.88102649  0.40253105  0.59553262     0.07300
C1608       C  0.87933563  0.40105231  0.61090139    -0.13400
S1609       S  0.92444953  0.32840360  0.62078994    -0.30300
H1610       H  0.92153920  0.34291267  0.58967046     0.11600
S1611       S  0.86154212  0.43086400  0.58658345    -0.27400
H1612       H  0.86715022  0.41700496  0.61686154     0.08800
H1613       H  0.84951326  0.31391558  0.66873656     0.27200
H1614       H  0.93575262  0.31441245  0.60837098     0.22000
H1615       H  0.85083536  0.41333575  0.57524641     0.27300
H1616       H  0.92695285  0.42018392  0.62658098     0.16200
C1617       C  0.72158977  0.24489445  0.75079132    -0.11100
C1618       C  0.75097600  0.24198552  0.75318382     0.15400
C1619       C  0.76102664  0.22069031  0.76289104     0.02300
C1620       C  0.74144768  0.20287854  0.77006075    -0.15500
C1621       C  0.71192182  0.20555859  0.76764979    -0.10300
C1622       C  0.70195640  0.22723839  0.75800264     0.09100
C1623       C  0.77048242  0.26239507  0.74593569     0.10100
S1624       S  0.79849407  0.21514217  0.76656349    -0.24600
H1625       H  0.74943631  0.18642980  0.77740225     0.20300
S1626       S  0.66463395  0.23475123  0.75499607    -0.30300
H1627       H  0.71387319  0.26160600  0.74351956     0.10700
C1628       C  0.77708172  0.26004577  0.73085687     0.03900
C1629       C  0.79625879  0.27949705  0.72450548    -0.12600
C1630       C  0.80887541  0.30134167  0.73293141    -0.08300
C1631       C  0.80102228  0.30439974  0.74791255     0.07300
C1632       C  0.78229022  0.28464541  0.75428326    -0.13400
S1633       S  0.76202950  0.23151968  0.71989161    -0.30300
H1634       H  0.80217887  0.27708826  0.71303765     0.11600
S1635       S  0.81318815  0.33350214  0.75934296    -0.27400
H1636       H  0.77658323  0.28678377  0.76581059     0.08800
H1637       H  0.65728555  0.23277366  0.77000320     0.27200
H1638       H  0.77516359  0.23913025  0.70650937     0.22000
H1639       H  0.81217463  0.35408939  0.74803449     0.27300
H1640       H  0.80843092  0.22414124  0.75270054     0.16200
C1641       C  0.97439386  0.25008199  0.70348213    -0.11100
C1642       C  0.99824624  0.25636936  0.71221104     0.15400
C1643       C  0.99781808  0.28067334  0.72143168     0.02300
C1644       C  0.97333339  0.29779867  0.72191542    -0.15500
C1645       C  0.94942429  0.29172142  0.71308468    -0.10300
C1646       C  0.95026015  0.26763742  0.70360828     0.09100
C1647       C  0.02355174  0.23771444  0.71087920     0.10100
S1648       S  0.02781413  0.29122689  0.73267977    -0.24600
H1649       H  0.97312779  0.31627400  0.72912841     0.20300
S1650       S  0.92226023  0.25898420  0.69070936    -0.30300
H1651       H  0.97492821  0.23171262  0.69619487     0.10700
C1652       C  0.03080897  0.21773917  0.72186417     0.03900
C1653       C  0.05467054  0.20001780  0.71980092    -0.12600
C1654       C  0.07139071  0.20188513  0.70695023    -0.08300
C1655       C  0.06356133  0.22167248  0.69585640     0.07300
C1656       C  0.03995521  0.23944470  0.69800905    -0.13400
S1657       S  0.00941877  0.21454532  0.73835467    -0.30300
H1658       H  0.06051693  0.18485953  0.72829815     0.11600
S1659       S  0.08180622  0.22448288  0.67842234    -0.27400
H1660       H  0.03401238  0.25452576  0.68946791     0.08800
H1661       H  0.91920715  0.28726475  0.68561419     0.27200
H1662       H  0.02619395  0.19351131  0.74526929     0.22000
H1663       H  0.08478493  0.19474535  0.67654939     0.27300
H1664       H  0.04922697  0.28005837  0.72348549     0.16200
C1665       C  0.40344268  0.62255960  0.63407403    -0.11100
C1666       C  0.37730706  0.61829567  0.62690468     0.15400
C1667       C  0.35183051  0.61805630  0.63522776     0.02300
C1668       C  0.35302533  0.62304794  0.65044375    -0.15500
C1669       C  0.37918027  0.62787255  0.65767480    -0.10300
C1670       C  0.40469657  0.62767971  0.64924246     0.09100
C1671       C  0.37749120  0.61648785  0.61062793     0.10100
S1672       S  0.31717641  0.61189148  0.62710427    -0.24600
H1673       H  0.33330987  0.62293105  0.65670410     0.20300
S1674       S  0.43938254  0.63567758  0.65681914    -0.30300
H1675       H  0.42298625  0.62308908  0.62766403     0.10700
C1676       C  0.37022852  0.64028294  0.60188196     0.03900
C1677       C  0.37297993  0.63851140  0.58652547    -0.12600
C1678       C  0.38329136  0.61355872  0.57969478    -0.08300
C1679       C  0.38952281  0.58939018  0.58851349     0.07300
C1680       C  0.38692309  0.59125606  0.60386023    -0.13400
S1681       S  0.35916028  0.67347981  0.61033859    -0.30300
H1682       H  0.36830213  0.65713375  0.57985699     0.11600
S1683       S  0.40033411  0.55548283  0.58091013    -0.27400
H1684       H  0.39232932  0.57291144  0.61060732     0.08800
H1685       H  0.42985825  0.65970097  0.66476832     0.27200
H1686       H  0.35515771  0.68896522  0.59721065     0.22000
H1687       H  0.38229626  0.55725518  0.56853860     0.27300
H1688       H  0.32674627  0.59629005  0.61482977     0.16200
C1689       C  0.35006553  0.51572429  0.73124159    -0.11100
C1690       C  0.37167690  0.50838876  0.74122305     0.15400
C1691       C  0.39407396  0.52786807  0.74393809     0.02300
C1692       C  0.39466728  0.55398467  0.73642742    -0.15500
C1693       C  0.37321322  0.56143885  0.72627376    -0.10300
C1694       C  0.35071036  0.54177121  0.72363072     0.09100
C1695       C  0.37152747  0.47940552  0.74772482     0.10100
S1696       S  0.42262038  0.52059676  0.75676662    -0.24600
H1697       H  0.41197860  0.56875075  0.73868552     0.20300
S1698       S  0.32315818  0.54756739  0.71010470    -0.30300
H1699       H  0.33309382  0.50055635  0.72898094     0.10700
C1700       C  0.35278534  0.47199575  0.75923707     0.03900
C1701       C  0.35392672  0.44436804  0.76523670    -0.12600
C1702       C  0.37330726  0.42386450  0.75987908    -0.08300
C1703       C  0.39125722  0.43118392  0.74788514     0.07300
C1704       C  0.39046081  0.45892422  0.74213157    -0.13400
S1705       S  0.32825560  0.49807563  0.76666733    -0.30300
H1706       H  0.34013381  0.43895376  0.77440165     0.11600
S1707       S  0.41474301  0.40601970  0.73897745    -0.27400
H1708       H  0.40444248  0.46453357  0.73305310     0.08800
H1709       H  0.34231215  0.55670755  0.69910630     0.27200
H1710       H  0.31447560  0.47962558  0.77664924     0.22000
H1711       H  0.39505723  0.38326174  0.73946843     0.27300
H1712       H  0.40681834  0.50271436  0.76618789     0.16200
C1713       C  0.62755234  0.90344763  0.64261599    -0.11100
C1714       C  0.63350079  0.88235870  0.63206545     0.15400
C1715       C  0.64382311  0.85545863  0.63677104     0.02300
C1716       C  0.64819995  0.85040228  0.65179933    -0.15500
C1717       C  0.64169841  0.87127012  0.66240329    -0.10300
C1718       C  0.63142513  0.89823889  0.65766666     0.09100
C1719       C  0.62954070  0.88926813  0.61624112     0.10100
S1720       S  0.65098447  0.82638061  0.62423318    -0.24600
H1721       H  0.65580143  0.82957223  0.65527197     0.20300
S1722       S  0.62381106  0.92729801  0.67012273    -0.30300
H1723       H  0.62010018  0.92428296  0.63906295     0.10700
C1724       C  0.60231589  0.89542493  0.61036853     0.03900
C1725       C  0.59942129  0.90034757  0.59519425    -0.12600
C1726       C  0.62306620  0.89877230  0.58571484    -0.08300
C1727       C  0.65049347  0.89387084  0.59172740     0.07300
C1728       C  0.65340754  0.88917398  0.60688127    -0.13400
S1729       S  0.57091418  0.89498862  0.62196167    -0.30300
H1730       H  0.57840381  0.90391358  0.59056718     0.11600
S1731       S  0.68258608  0.89363768  0.58072525    -0.27400
H1732       H  0.67443091  0.88509054  0.61141829     0.08800
H1733       H  0.64762775  0.92227396  0.67922043     0.27200
H1734       H  0.55107494  0.90241760  0.61097094     0.22000
H1735       H  0.67300037  0.91403901  0.57045953     0.27300
H1736       H  0.62958578  0.83348129  0.61399654     0.16200
C1737       C  0.63250016  0.97410771  0.74149269    -0.11100
C1738       C  0.65936545  0.98661392  0.74381960     0.15400
C1739       C  0.68408399  0.97224322  0.73886676     0.02300
C1740       C  0.68140894  0.94548499  0.73204224    -0.15500
C1741       C  0.65449481  0.93283469  0.72976826    -0.10300
C1742       C  0.62973371  0.94788670  0.73422770     0.09100
C1743       C  0.66063195  0.01455414  0.75150904     0.10100
S1744       S  0.71953696  0.98691148  0.74085203    -0.24600
H1745       H  0.70056559  0.93440514  0.72853400     0.20300
S1746       S  0.59397146  0.93575245  0.73030291    -0.30300
H1747       H  0.61343339  0.98522715  0.74511087     0.10700
C1748       C  0.64866430  0.03931749  0.74516504     0.03900
C1749       C  0.64824019  0.06485382  0.75323010    -0.12600
C1750       C  0.65995595  0.06640479  0.76744745    -0.08300
C1751       C  0.67242099  0.04163856  0.77368608     0.07300
C1752       C  0.67271694  0.01606796  0.76563582    -0.13400
S1753       S  0.63456907  0.03862647  0.72662942    -0.30300
H1754       H  0.63893612  0.08384914  0.74838194     0.11600
S1755       S  0.68662974  0.04074403  0.79212661    -0.27400
H1756       H  0.68169323  0.99697562  0.77057514     0.08800
H1757       H  0.60040856  0.92656024  0.71590939     0.27200
H1758       H  0.62766355  0.06785289  0.72572152     0.22000
H1759       H  0.66432206  0.05707938  0.79818352     0.27300
H1760       H  0.71143265  0.01580645  0.73992110     0.16200
C1761       C  0.53349461  0.77226499  0.72472131    -0.11100
C1762       C  0.52638153  0.75652929  0.71210243     0.15400
C1763       C  0.54268423  0.75998207  0.69915719     0.02300
C1764       C  0.56640577  0.77814631  0.69929151    -0.15500
C1765       C  0.57380567  0.79396397  0.71191023    -0.10300
C1766       C  0.55690314  0.79109189  0.72478591     0.09100
C1767       C  0.50155340  0.73701864  0.71267984     0.10100
S1768       S  0.53424459  0.74208969  0.68206504    -0.24600
H1769       H  0.57885721  0.78039296  0.68929064     0.20300
S1770       S  0.56535677  0.81017825  0.74155544    -0.30300
H1771       H  0.52071044  0.76952147  0.73456780     0.10700
C1772       C  0.50488052  0.70706963  0.71307857     0.03900
C1773       C  0.48059983  0.68948741  0.71240913    -0.12600
C1774       C  0.45307771  0.70132343  0.71145237    -0.08300
C1775       C  0.44986978  0.73141464  0.71199947     0.07300
C1776       C  0.47410493  0.74886079  0.71244464    -0.13400
S1777       S  0.54000990  0.69129673  0.71430092    -0.30300
H1778       H  0.48310722  0.66647132  0.71217551     0.11600
S1779       S  0.41557490  0.74894328  0.71256285    -0.27400
H1780       H  0.47158678  0.77190945  0.71249242     0.08800
H1781       H  0.54159887  0.80103797  0.74980752     0.27200
H1782       H  0.53082944  0.66283429  0.71606197     0.22000
H1783       H  0.40257399  0.72824410  0.72162292     0.27300
H1784       H  0.50462529  0.73999010  0.68434661     0.16200
C1785       C  0.13055254  0.88328831  0.85545753    -0.11100
C1786       C  0.15558009  0.88084491  0.86381458     0.15400
C1787       C  0.18133486  0.87327564  0.85675180     0.02300
C1788       C  0.18131639  0.86751317  0.84159619    -0.15500
C1789       C  0.15613989  0.86943902  0.83318683    -0.10300
C1790       C  0.13040931  0.87743598  0.84034896     0.09100
C1791       C  0.15307301  0.88284256  0.88004528     0.10100
S1792       S  0.21482543  0.87054803  0.86647368    -0.24600
H1793       H  0.20123918  0.86166285  0.83631939     0.20300
S1794       S  0.09621445  0.87867395  0.83124208    -0.30300
H1795       H  0.11062593  0.88854184  0.86091296     0.10700
C1796       C  0.14696165  0.90889154  0.88716357     0.03900
C1797       C  0.14119669  0.90898288  0.90235270    -0.12600
C1798       C  0.14119484  0.88346795  0.91058156    -0.08300
C1799       C  0.14775700  0.85741692  0.90332985     0.07300
C1800       C  0.15397868  0.85751749  0.88826293    -0.13400
S1801       S  0.14671069  0.94197538  0.87688859    -0.30300
H1802       H  0.13650424  0.92900656  0.90782856     0.11600
S1803       S  0.14646083  0.82298809  0.91224781    -0.27400
H1804       H  0.15820821  0.83742201  0.88271799     0.08800
H1805       H  0.09977462  0.85208209  0.82420833     0.27200
H1806       H  0.13856259  0.95980123  0.88864436     0.22000
H1807       H  0.12005315  0.82816215  0.91914402     0.27300
H1808       H  0.20799071  0.89005310  0.87772305     0.16200
C1809       C  0.17744299  0.98128297  0.76047141    -0.11100
C1810       C  0.15748016  0.98578511  0.74920062     0.15400
C1811       C  0.13840231  0.96357413  0.74541713     0.02300
C1812       C  0.13983907  0.93744923  0.75288707    -0.15500
C1813       C  0.15957637  0.93283940  0.76433693    -0.10300
C1814       C  0.17839651  0.95541204  0.76823755     0.09100
C1815       C  0.15712857  0.01376253  0.74154022     0.10100
S1816       S  0.11165961  0.96712095  0.73120425    -0.24600
H1817       H  0.12521167  0.92056727  0.74970568     0.20300
S1818       S  0.20338682  0.95330310  0.78328242    -0.30300
H1819       H  0.19206585  0.99833510  0.76342741     0.10700
C1820       C  0.14782686  0.03882403  0.74872016     0.03900
C1821       C  0.14641382  0.06456955  0.74081578    -0.12600
C1822       C  0.15420635  0.06585958  0.72587625    -0.08300
C1823       C  0.16366714  0.04065660  0.71876101     0.07300
C1824       C  0.16533915  0.01505552  0.72670029    -0.13400
S1825       S  0.13679711  0.03786062  0.76779964    -0.30300
H1826       H  0.13919943  0.08382413  0.74629486     0.11600
S1827       S  0.17216989  0.03924255  0.69941308    -0.27400
H1828       H  0.17231619  0.99574536  0.72116055     0.08800
H1829       H  0.18299127  0.94275935  0.79331147     0.27200
H1830       H  0.13148576  0.06732676  0.76931362     0.22000
H1831       H  0.14885419  0.05628146  0.69513545     0.27300
H1832       H  0.10698553  0.99659930  0.73304934     0.16200
C1833       C  0.27111466  0.77849895  0.75988325    -0.11100
C1834       C  0.26130570  0.76051859  0.74859292     0.15400
C1835       C  0.23226557  0.76166263  0.74443035     0.02300
C1836       C  0.21383546  0.78077436  0.75153599    -0.15500
C1837       C  0.22341088  0.79860518  0.76300864    -0.10300
C1838       C  0.25269077  0.79775218  0.76696313     0.09100
C1839       C  0.28179725  0.74087372  0.74131934     0.10100
S1840       S  0.21723160  0.73900734  0.73030500    -0.24600
H1841       H  0.19153236  0.78103248  0.74834225     0.20300
S1842       S  0.26826044  0.82144868  0.78040330    -0.30300
H1843       H  0.29346286  0.77792959  0.76299027     0.10700
C1844       C  0.29114770  0.74542345  0.72674157     0.03900
C1845       C  0.30910030  0.72523933  0.72001527    -0.12600
C1846       C  0.31819388  0.70063081  0.72758319    -0.08300
C1847       C  0.30881657  0.69627815  0.74225792     0.07300
C1848       C  0.29111967  0.71658976  0.74898900    -0.13400
S1849       S  0.28069898  0.77723841  0.71681582    -0.30300
H1850       H  0.31650669  0.72889907  0.70886882     0.11600
S1851       S  0.31726461  0.66465067  0.75274441    -0.27400
H1852       H  0.28373334  0.71296437  0.76015851     0.08800
H1853       H  0.25313793  0.84567642  0.77552166     0.27200
H1854       H  0.29605797  0.77142953  0.70383362     0.22000
H1855       H  0.31380614  0.64576476  0.74079938     0.27300
H1856       H  0.23555148  0.71561267  0.73255913     0.16200
C1857       C  0.88728437  0.59716064  0.85527224    -0.11100
C1858       C  0.88541261  0.61934336  0.86563259     0.15400
C1859       C  0.88060879  0.64762198  0.86066620     0.02300
C1860       C  0.87693466  0.65287949  0.84561048    -0.15500
C1861       C  0.87938091  0.63082684  0.83520600    -0.10300
C1862       C  0.88421605  0.60253019  0.84016793     0.09100
C1863       C  0.88942294  0.61255019  0.88146453     0.10100
S1864       S  0.88048630  0.67819871  0.87281644    -0.24600
H1865       H  0.87367983  0.67469016  0.84192477     0.20300
S1866       S  0.88593196  0.57225324  0.82788653    -0.30300
H1867       H  0.89098989  0.57545306  0.85900532     0.10700
C1868       C  0.86754646  0.61693935  0.89190113     0.03900
C1869       C  0.87367677  0.61396570  0.90695660    -0.12600
C1870       C  0.90102134  0.60586749  0.91180263    -0.08300
C1871       C  0.92234617  0.59967932  0.90121685     0.07300
C1872       C  0.91625601  0.60294520  0.88621397    -0.13400
S1873       S  0.83176855  0.62592333  0.88603851    -0.30300
H1874       H  0.85711751  0.61804434  0.91501936     0.11600
S1875       S  0.95826997  0.58954226  0.90606884    -0.27400
H1876       H  0.93301235  0.59926465  0.87819002     0.08800
H1877       H  0.86522374  0.58261115  0.81800060     0.27200
H1878       H  0.81997339  0.62905821  0.90020253     0.22000
H1879       H  0.96134513  0.61080669  0.91692577     0.27300
H1880       H  0.90022967  0.66718585  0.88301119     0.16200
C1881       C  0.85018961  0.47886675  0.73900485    -0.11100
C1882       C  0.87483845  0.48911328  0.74598638     0.15400
C1883       C  0.89906904  0.47124039  0.74707704     0.02300
C1884       C  0.89843736  0.44405793  0.74063418    -0.15500
C1885       C  0.87387605  0.43382233  0.73344150    -0.10300
C1886       C  0.84923497  0.45138281  0.73296541     0.09100
C1887       C  0.87406961  0.51811924  0.75245675     0.10100
S1888       S  0.93137212  0.48163071  0.75655493    -0.24600
H1889       H  0.91739175  0.43081370  0.74123324     0.20300
S1890       S  0.81549216  0.43975456  0.72549797    -0.30300
H1891       H  0.83133932  0.49228901  0.73847580     0.10700
C1892       C  0.89028358  0.54082625  0.74662107     0.03900
C1893       C  0.88975976  0.56752680  0.75365735    -0.12600
C1894       C  0.87281388  0.57228318  0.76624291    -0.08300
C1895       C  0.85537335  0.54965822  0.77152465     0.07300
C1896       C  0.85652463  0.52289068  0.76470048    -0.13400
S1897       S  0.91118361  0.53596857  0.73007026    -0.30300
H1898       H  0.90262706  0.58480919  0.74929426     0.11600
S1899       S  0.83187964  0.55291262  0.78714229    -0.27400
H1900       H  0.84370908  0.50547853  0.76902998     0.08800
H1901       H  0.81677224  0.41247451  0.73203767     0.27200
H1902       H  0.92418027  0.56311136  0.73009429     0.22000
H1903       H  0.81558510  0.57469810  0.78051579     0.27300
H1904       H  0.91854238  0.50051261  0.76661269     0.16200
C1905       C  0.79403044  0.72419805  0.74332735    -0.11100
C1906       C  0.77664246  0.74246515  0.75164114     0.15400
C1907       C  0.77806605  0.74141288  0.76717289     0.02300
C1908       C  0.79716652  0.72255349  0.77400763    -0.15500
C1909       C  0.81517862  0.70469423  0.76571205    -0.10300
C1910       C  0.81286475  0.70507537  0.75013802     0.09100
C1911       C  0.75582476  0.76079803  0.74378318     0.10100
S1912       S  0.75621127  0.76360375  0.77888546    -0.24600
H1913       H  0.79849150  0.72243078  0.78593428     0.20300
S1914       S  0.83203343  0.68075555  0.73831635    -0.30300
H1915       H  0.79234475  0.72433806  0.73140777     0.10700
C1916       C  0.76410583  0.78652345  0.73687733     0.03900
C1917       C  0.74353269  0.80300408  0.72942452    -0.12600
C1918       C  0.71481482  0.79425686  0.72881119    -0.08300
C1919       C  0.70692632  0.76793433  0.73538629     0.07300
C1920       C  0.72735495  0.75179006  0.74294035    -0.13400
S1921       S  0.80065673  0.79872427  0.73800979    -0.30300
H1922       H  0.74965544  0.82309003  0.72438125     0.11600
S1923       S  0.67148857  0.75302384  0.73394864    -0.27400
H1924       H  0.72113073  0.73171629  0.74799963     0.08800
H1925       H  0.82858537  0.65699424  0.74768324     0.27200
H1926       H  0.79642047  0.82508212  0.73086012     0.22000
H1927       H  0.66697200  0.76221045  0.71936416     0.27300
H1928       H  0.75349830  0.78659787  0.76901343     0.16200
C1929       C  0.98721592  0.74768863  0.79417544    -0.11100
C1930       C  0.00818796  0.74032494  0.78385407     0.15400
C1931       C  0.00394892  0.71625878  0.77471983     0.02300
C1932       C  0.97884003  0.70016096  0.77616983    -0.15500
C1933       C  0.95780150  0.70725734  0.78664183    -0.10300
C1934       C  0.96232173  0.73145258  0.79577762     0.09100
C1935       C  0.03451223  0.75780747  0.78346033     0.10100
S1936       S  0.02938890  0.70501170  0.76093172    -0.24600
H1937       H  0.97574392  0.68188998  0.76899620     0.20300
S1938       S  0.93794935  0.74245016  0.81005471    -0.30300
H1939       H  0.99055929  0.76606266  0.80126121     0.10700
C1940       C  0.03900074  0.77894682  0.77265512     0.03900
C1941       C  0.06345704  0.79629933  0.77344847    -0.12600
C1942       C  0.08335214  0.79321602  0.78496593    -0.08300
C1943       C  0.07828514  0.77226793  0.79594967     0.07300
C1944       C  0.05426393  0.75460296  0.79492409    -0.13400
S1945       S  0.01323219  0.78427316  0.75810562    -0.30300
H1946       H  0.06709993  0.81233813  0.76504985     0.11600
S1947       S  0.10034554  0.76812211  0.81208651    -0.27400
H1948       H  0.05038340  0.73877360  0.80342663     0.08800
H1949       H  0.93542652  0.71481785  0.81608117     0.27200
H1950       H  0.02683630  0.80785260  0.75149424     0.22000
H1951       H  0.10265576  0.79769318  0.81475807     0.27300
H1952       H  0.05380001  0.71723152  0.76735893     0.16200
loop_ 
_geom_bond_atom_site_label_1 
_geom_bond_atom_site_label_2 
_geom_bond_distance 
_geom_bond_site_symmetry_2 
_ccdc_geom_bond_type 
O1            C4   1.267       .  A
O1           Cd6   2.478       .  S
C2           O11   1.263       .  A
C2            O7   1.267       .  A
C2         C1909   1.485       .  S
O3            C9   1.266       .  A
O3           Cd6   2.473       .  S
C4           O12   1.264       .  A
C4         C1861   1.479       .  S
C5           O10   1.267       .  A
C5            O8   1.264       .  A
C5         C1894   1.486       .  S
Cd6          O13   2.460       .  S
Cd6          O12   2.459       .  S
Cd6          O11   2.452       .  S
Cd6           O7   2.485       .  S
Cd6          O10   2.461       .  S
Cd6           O8   2.450       .  S
C9           O13   1.264       .  A
C9         C1933   1.487       .  S
O14          C17   1.267       .  A
O14         Cd19   2.489       .  S
C15          O24   1.265       .  A
C15          O20   1.266       .  A
C15        C1837   1.489       .  S
O16          C22   1.266       .  A
O16         Cd19   2.472       .  S
C17          O25   1.262       .  A
C17        C1789   1.486       .  S
C18          O23   1.266       .  A
C18          O21   1.265       .  A
C18        C1813   1.488       .  S
Cd19         O26   2.458       .  S
Cd19         O25   2.454       .  S
Cd19         O24   2.466       .  S
Cd19         O20   2.484       .  S
Cd19         O23   2.457       .  S
Cd19         O21   2.474       .  S
C22          O26   1.264       .  A
C22        C1942   1.483       .  S
O27          C30   1.267       .  A
O27         Cd32   2.505       .  S
C28          O37   1.264       .  A
C28          O33   1.268       .  A
C28        C1717   1.480       .  S
O29          C35   1.266       .  A
O29         Cd32   2.451       .  S
C30          O38   1.263       .  A
C30        C1918   1.482       .  S
C31          O36   1.265       .  A
C31          O34   1.265       .  A
C31        C1741   1.483       .  S
Cd32         O39   2.470       .  S
Cd32         O38   2.449       .  S
Cd32         O37   2.447       .  S
Cd32         O33   2.474       .  S
Cd32         O36   2.462       .  S
Cd32         O34   2.473       .  S
C35          O39   1.267       .  A
C35        C1765   1.485       .  S
O40          C43   1.266       .  A
O40         Cd45   2.458       .  S
C41          O50   1.264       .  A
C41          O46   1.266       .  A
C41        C1774   1.478       .  S
O42          C48   1.266       .  A
O42         Cd45   2.486       .  S
C43          O51   1.265       .  A
C43        C1693   1.485       .  S
C44          O49   1.267       .  A
C44          O47   1.265       .  A
C44        C1846   1.484       .  S
Cd45         O52   2.463       .  S
Cd45         O51   2.469       .  S
Cd45         O50   2.444       .  S
Cd45         O46   2.474       .  S
Cd45         O49   2.471       .  S
Cd45         O47   2.464       .  S
C48          O52   1.263       .  A
C48        C1669   1.486       .  S
O53          C56   1.266       .  A
O53         Cd58   2.467       .  S
C54          O63   1.265       .  A
C54          O59   1.266       .  A
C54        C1630   1.478       .  S
O55          C61   1.267       .  A
O55         Cd58   2.463       .  S
C56          O64   1.264       .  A
C56        C1597   1.482       .  S
C57          O62   1.266       .  A
C57          O60   1.264       .  A
C57        C1885   1.482       .  S
Cd58         O65   2.441       .  S
Cd58         O64   2.439       .  S
Cd58         O63   2.448       .  S
Cd58         O59   2.457       .  S
Cd58         O62   2.469       .  S
Cd58         O60   2.448       .  S
C61          O65   1.264       .  A
C61        C1645   1.480       .  S
O66          C69   1.267       .  A
O66         Cd71   2.486       .  S
C67          O76   1.265       .  A
C67          O72   1.268       .  A
C67        C1558   1.489       .  S
O68          C74   1.264       .  A
O68         Cd71   2.459       .  S
C69          O77   1.262       .  A
C69        C1582   1.479       .  S
C70          O75   1.266       .  A
C70          O73   1.265       .  A
C70        C1654   1.480       .  S
Cd71         O78   2.469       .  S
Cd71         O77   2.444       .  S
Cd71         O76   2.464       .  S
Cd71         O72   2.484       .  S
Cd71         O75   2.467       .  S
Cd71         O73   2.452       .  S
C74          O78   1.265       .  A
C74        C1822   1.480       .  S
O79          C82   1.265       .  A
O79         Cd84   2.460       .  S
C80          O89   1.263       .  A
C80          O85   1.266       .  A
C80        C1525   1.478       .  S
O81          C87   1.265       .  A
O81         Cd84   2.481       .  S
C82          O90   1.266       .  A
C82        C1702   1.482       .  S
C83          O88   1.266       .  A
C83          O86   1.265       .  A
C83        C1573   1.480       .  S
Cd84         O91   2.454       .  S
Cd84         O90   2.459       .  S
Cd84         O89   2.441       .  S
Cd84         O85   2.468       .  S
Cd84         O88   2.463       .  S
Cd84         O86   2.462       .  S
C87          O91   1.265       .  A
C87        C1501   1.486       .  S
O92          C95   1.264       .  A
O92         Cd97   2.441       .  S
C93         O102   1.264       .  A
C93          O98   1.265       .  A
C93        C1534   1.479       .  S
O94         C100   1.266       .  A
O94         Cd97   2.471       .  S
C95         O103   1.266       .  A
C95        C1750   1.479       .  S
C96         O101   1.267       .  A
C96          O99   1.262       .  A
C96        C1621   1.480       .  S
Cd97        O104   2.439       .  S
Cd97        O103   2.480       .  S
Cd97        O102   2.444       .  S
Cd97         O98   2.459       .  S
Cd97        O101   2.472       .  S
Cd97         O99   2.442       .  S
C100        O104   1.263       .  A
C100       C1477   1.476       .  S
O105        C108   1.263       .  A
O105       Cd110   2.453       .  S
C106        O115   1.265       .  A
C106        O111   1.264       .  A
C106       C1462   1.484       .  S
O107        C113   1.267       .  A
O107       Cd110   2.477       .  S
C108        O116   1.265       .  A
C108       C1414   1.473       .  S
C109        O114   1.267       .  A
C109        O112   1.265       .  A
C109       C1438   1.483       .  S
Cd110       O117   2.442       .  S
Cd110       O116   2.469       .  S
Cd110       O115   2.446       .  S
Cd110       O111   2.459       .  S
Cd110       O114   2.478       .  S
Cd110       O112   2.440       .  S
C113        O117   1.264       .  A
C113       C1381   1.482       .  S
O118        C121   1.267       .  A
O118       Cd123   2.474       .  S
C119        O128   1.263       .  A
C119        O124   1.267       .  A
C119       C1357   1.477       .  S
O120        C126   1.264       .  A
O120       Cd123   2.446       .  S
C121        O129   1.264       .  A
C121       C1318   1.479       .  S
C122        O127   1.265       .  A
C122        O125   1.264       .  A
C122       C1453   1.478       .  S
Cd123       O130   2.460       .  S
Cd123       O129   2.447       .  S
Cd123       O128   2.445       .  S
Cd123       O124   2.472       .  S
Cd123       O127   2.456       .  S
Cd123       O125   2.453       .  S
C126        O130   1.266       .  A
C126       C1333   1.479       .  S
O131        C134   1.267       .  A
O131       Cd136   2.474       .  S
C132        O141   1.263       .  A
C132        O137   1.267       .  A
C132       C1366   1.477       .  S
O133        C139   1.267       .  A
O133       Cd136   2.469       .  S
C134        O142   1.264       .  A
C134       C1798   1.484       .  S
C135        O140   1.265       .  A
C135        O138   1.266       .  A
C135       C1270   1.478       .  S
Cd136       O143   2.444       .  S
Cd136       O142   2.451       .  S
Cd136       O141   2.447       .  S
Cd136       O137   2.471       .  S
Cd136       O140   2.457       .  S
Cd136       O138   2.458       .  S
C139        O143   1.264       .  A
C139       C1294   1.482       .  S
O144        C147   1.266       .  A
O144       Cd149   2.476       .  S
C145        O154   1.264       .  A
C145        O150   1.266       .  A
C145       C1429   1.477       .  S
O146        C152   1.266       .  A
O146       Cd149   2.473       .  S
C147        O155   1.264       .  A
C147       C1870   1.480       .  S
C148        O153   1.265       .  A
C148        O151   1.265       .  A
C148       C1246   1.482       .  S
Cd149       O156   2.453       .  S
Cd149       O155   2.453       .  S
Cd149       O154   2.452       .  S
Cd149       O150   2.475       .  S
Cd149       O153   2.457       .  S
Cd149       O151   2.463       .  S
C152        O156   1.264       .  A
C152       C1285   1.484       .  S
O157        C160   1.264       .  A
O157       Cd162   2.464       .  S
C158        O167   1.265       .  A
C158        O163   1.265       .  A
C158       C1165   1.480       .  S
O159        C165   1.264       .  A
O159       Cd162   2.457       .  S
C160        O168   1.264       .  A
C160       C1198   1.478       .  S
C161        O166   1.264       .  A
C161        O164   1.265       .  A
C161       C1213   1.485       .  S
Cd162       O169   2.480       .  S
Cd162       O168   2.456       .  S
Cd162       O167   2.459       .  S
Cd162       O163   2.474       .  S
Cd162       O166   2.475       .  S
Cd162       O164   2.462       .  S
C165        O169   1.265       .  A
C165       C1261   1.479       .  S
O170        C173   1.266       .  A
O170       Cd175   2.495       .  S
C171        O180   1.264       .  A
C171        O176   1.267       .  A
C171       C1141   1.476       .  S
O172        C178   1.266       .  A
O172       Cd175   2.475       .  S
C173        O181   1.262       .  A
C173       C1117   1.478       .  S
C174        O179   1.265       .  A
C174        O177   1.264       .  A
C174       C1237   1.478       .  S
Cd175       O182   2.455       .  S
Cd175       O181   2.429       .  S
Cd175       O180   2.441       .  S
Cd175       O176   2.469       .  S
Cd175       O179   2.454       .  S
Cd175       O177   2.460       .  S
C178        O182   1.266       .  A
C178       C1222   1.488       .  S
O183        C186   1.264       .  A
O183       Cd188   2.469       .  S
C184        O193   1.263       .  A
C184        O189   1.267       .  A
C184       C1093   1.480       .  S
O185        C191   1.265       .  A
O185       Cd188   2.482       .  S
C186        O194   1.265       .  A
C186       C1405   1.482       .  S
C187        O192   1.266       .  A
C187        O190   1.265       .  A
C187       C1150   1.482       .  S
Cd188       O195   2.460       .  S
Cd188       O194   2.473       .  S
Cd188       O193   2.439       .  S
Cd188       O189   2.469       .  S
Cd188       O192   2.476       .  S
Cd188       O190   2.445       .  S
C191        O195   1.262       .  A
C191       C1510   1.482       .  S
O196        C199   1.266       .  A
O196       Cd201   2.463       .  S
C197        O206   1.264       .  A
C197        O202   1.265       .  A
C197       C1486   1.477       .  S
O198        C204   1.266       .  A
O198       Cd201   2.462       .  S
C199        O207   1.264       .  A
C199       C1189   1.473       .  S
C200        O205   1.266       .  A
C200        O203   1.264       .  A
C200       C1342   1.484       .  S
Cd201       O208   2.450       .  S
Cd201       O207   2.426       .  S
Cd201       O206   2.448       .  S
Cd201       O202   2.466       .  S
Cd201       O205   2.457       .  S
Cd201       O203   2.453       .  S
C204        O208   1.263       .  A
C204       C1102   1.477       .  S
O209        C212   1.268       .  A
O209       Cd214   2.480       .  S
C210        O219   1.264       .  A
C210        O215   1.267       .  A
C210       C1678   1.482       .  S
O211        C217   1.261       .  A
O211       Cd214   2.468       .  S
C212        O220   1.264       .  A
C212       C1045   1.487       .  S
C213        O218   1.268       .  A
C213        O216   1.264       .  A
C213       C1021   1.483       .  S
Cd214       O221   2.484       .  S
Cd214       O220   2.459       .  S
Cd214       O219   2.453       .  S
Cd214       O215   2.478       .  S
Cd214       O218   2.481       .  S
Cd214       O216   2.442       .  S
C217        O221   1.263       .  A
C217       C1069   1.479       .  S
O222        C225   1.266       .  A
O222       Cd227   2.479       .  S
C223        O232   1.265       .  A
C223        O228   1.267       .  A
C223        C997   1.481       .  S
O224        C230   1.265       .  A
O224       Cd227   2.448       .  S
C225        O233   1.263       .  A
C225       C1726   1.477       .  S
C226        O231   1.265       .  A
C226        O229   1.263       .  A
C226       C1078   1.480       .  S
Cd227       O234   2.484       .  S
Cd227       O233   2.457       .  S
Cd227       O232   2.457       .  S
Cd227       O228   2.470       .  S
Cd227       O231   2.476       .  S
Cd227       O229   2.444       .  S
C230        O234   1.267       .  A
C230        C973   1.479       .  S
O235        C238   1.267       .  A
O235       Cd240   2.476       .  S
C236        O245   1.265       .  A
C236        O241   1.265       .  A
C236       C1054   1.491       .  S
O237        C243   1.266       .  A
O237       Cd240   2.476       .  S
C238        O246   1.264       .  A
C238        C901   1.484       .  S
C239        O244   1.265       .  A
C239        O242   1.266       .  A
C239        C934   1.486       .  S
Cd240       O247   2.465       .  S
Cd240       O246   2.457       .  S
Cd240       O245   2.474       .  S
Cd240       O241   2.481       .  S
Cd240       O244   2.458       .  S
Cd240       O242   2.489       .  S
C243        O247   1.264       .  A
C243        C949   1.486       .  S
O248        C251   1.265       .  A
O248       Cd253   2.462       .  S
C249        O258   1.263       .  A
C249        O254   1.265       .  A
C249       C1006   1.478       .  S
O250        C256   1.266       .  A
O250       Cd253   2.464       .  S
C251        O259   1.266       .  A
C251        C862   1.479       .  S
C252        O257   1.264       .  A
C252        O255   1.264       .  A
C252        C877   1.476       .  S
Cd253       O260   2.470       .  S
Cd253       O259   2.457       .  S
Cd253       O258   2.446       .  S
Cd253       O254   2.487       .  S
Cd253       O257   2.465       .  S
Cd253       O255   2.463       .  S
C256        O260   1.265       .  A
C256        C958   1.487       .  S
O261        C264   1.268       .  A
O261       Cd266   2.484       .  S
C262        O271   1.264       .  A
C262        O267   1.266       .  A
C262        C805   1.483       .  S
O263        C269   1.265       .  A
O263       Cd266   2.456       .  S
C264        O272   1.265       .  A
C264        C790   1.482       .  S
C265        O270   1.263       .  A
C265        O268   1.261       .  A
C265        C829   1.486       .  S
Cd266       O273   2.477       .  S
Cd266       O272   2.449       .  S
Cd266       O271   2.448       .  S
Cd266       O267   2.473       .  S
Cd266       O270   2.462       .  S
Cd266       O268   2.471       .  S
C269        O273   1.266       .  A
C269        C982   1.479       .  S
O274        C277   1.266       .  A
O274       Cd279   2.483       .  S
C275        O284   1.264       .  A
C275        O280   1.267       .  A
C275        C733   1.483       .  S
O276        C282   1.265       .  A
O276       Cd279   2.459       .  S
C277        O285   1.263       .  A
C277        C757   1.482       .  S
C278        O283   1.264       .  A
C278        O281   1.266       .  A
C278       C1030   1.479       .  S
Cd279       O286   2.449       .  S
Cd279       O285   2.444       .  S
Cd279       O284   2.451       .  S
Cd279       O280   2.491       .  S
Cd279       O283   2.461       .  S
Cd279       O281   2.459       .  S
C282        O286   1.265       .  A
C282        C838   1.478       .  S
O287        C290   1.263       .  A
O287       Cd292   2.466       .  S
C288        O297   1.266       .  A
C288        O293   1.265       .  A
C288        C766   1.475       .  S
O289        C295   1.266       .  A
O289       Cd292   2.474       .  S
C290        O298   1.263       .  A
C290       C1606   1.478       .  S
C291        O296   1.266       .  A
C291        O294   1.264       .  A
C291        C925   1.486       .  S
Cd292       O299   2.444       .  S
Cd292       O298   2.459       .  S
Cd292       O297   2.446       .  S
Cd292       O293   2.457       .  S
Cd292       O296   2.469       .  S
Cd292       O294   2.466       .  S
C295        O299   1.264       .  A
C295        C718   1.481       .  S
O300        C303   1.267       .  A
O300       Cd305   2.491       .  S
C301        O310   1.264       .  A
C301        O306   1.266       .  A
C301        C814   1.480       .  S
O302        C308   1.266       .  A
O302       Cd305   2.456       .  S
C303        O311   1.262       .  A
C303       C1549   1.482       .  S
C304        O309   1.264       .  A
C304        O307   1.265       .  A
C304        C886   1.480       .  S
Cd305       O312   2.441       .  S
Cd305       O311   2.443       .  S
Cd305       O310   2.456       .  S
Cd305       O306   2.472       .  S
Cd305       O309   2.459       .  S
Cd305       O307   2.469       .  S
C308        O312   1.266       .  A
C308        C709   1.480       .  S
O313        C316   1.266       .  A
O313       Cd318   2.471       .  S
C314        O323   1.262       .  A
C314        O319   1.265       .  A
C314       C1390   1.478       .  S
O315        C321   1.267       .  A
O315       Cd318   2.457       .  S
C316        O324   1.264       .  A
C316        C661   1.481       .  S
C317        O322   1.263       .  A
C317        O320   1.264       .  A
C317        C646   1.479       .  S
Cd318       O325   2.435       .  S
Cd318       O324   2.454       .  S
Cd318       O323   2.452       .  S
Cd318       O319   2.481       .  S
Cd318       O322   2.456       .  S
Cd318       O320   2.463       .  S
C321        O325   1.265       .  A
C321        C694   1.482       .  S
O326        C329   1.268       .  A
O326       Cd331   2.496       .  S
C327        O336   1.264       .  A
C327        O332   1.267       .  A
C327       C1309   1.479       .  S
O328        C334   1.264       .  A
O328       Cd331   2.446       .  S
C329        O337   1.262       .  A
C329        C613   1.485       .  S
C330        O335   1.267       .  A
C330        O333   1.267       .  A
C330        C589   1.484       .  S
Cd331       O338   2.465       .  S
Cd331       O337   2.448       .  S
Cd331       O336   2.457       .  S
Cd331       O332   2.480       .  S
Cd331       O335   2.455       .  S
Cd331       O333   2.462       .  S
C334        O338   1.264       .  A
C334        C685   1.481       .  S
O339        C342   1.265       .  A
O339       Cd344   2.460       .  S
C340        O349   1.265       .  A
C340        O345   1.267       .  A
C340        C670   1.486       .  S
O341        C347   1.265       .  A
O341       Cd344   2.464       .  S
C342        O350   1.264       .  A
C342        C853   1.480       .  S
C343        O348   1.266       .  A
C343        O346   1.264       .  A
C343        C550   1.483       .  S
Cd344       O351   2.443       .  S
Cd344       O350   2.456       .  S
Cd344       O349   2.454       .  S
Cd344       O345   2.476       .  S
Cd344       O348   2.472       .  S
Cd344       O346   2.456       .  S
C347        O351   1.265       .  A
C347        C565   1.484       .  S
O352        C355   1.267       .  A
O352       Cd357   2.471       .  S
C353        O362   1.261       .  A
C353        O358   1.265       .  A
C353        C910   1.482       .  S
O354        C360   1.264       .  A
O354       Cd357   2.465       .  S
C355        O363   1.264       .  A
C355        C622   1.482       .  S
C356        O361   1.266       .  A
C356        O359   1.267       .  A
C356        C574   1.478       .  S
Cd357       O364   2.465       .  S
Cd357       O363   2.448       .  S
Cd357       O362   2.457       .  S
Cd357       O358   2.490       .  S
Cd357       O361   2.457       .  S
Cd357       O359   2.441       .  S
C360        O364   1.263       .  A
C360        C517   1.478       .  S
O365        C368   1.267       .  A
O365       Cd370   2.485       .  S
C366        O375   1.264       .  A
C366        O371   1.267       .  A
C366        C469   1.483       .  S
O367        C373   1.265       .  A
O367       Cd370   2.472       .  S
C368        O376   1.264       .  A
C368       C1174   1.480       .  S
C369        O374   1.266       .  A
C369        O372   1.265       .  A
C369        C541   1.481       .  S
Cd370       O377   2.467       .  S
Cd370       O376   2.449       .  S
Cd370       O375   2.437       .  S
Cd370       O371   2.490       .  S
Cd370       O374   2.462       .  S
Cd370       O372   2.461       .  S
C373        O377   1.266       .  A
C373        C502   1.488       .  S
O378        C381   1.265       .  A
O378       Cd383   2.453       .  S
C379        O388   1.264       .  A
C379        O384   1.265       .  A
C379       C1126   1.478       .  S
O380        C386   1.264       .  A
O380       Cd383   2.454       .  S
C381        O389   1.265       .  A
C381        C454   1.478       .  S
C382        O387   1.265       .  A
C382        O385   1.265       .  A
C382        C493   1.482       .  S
Cd383       O390   2.467       .  S
Cd383       O389   2.444       .  S
Cd383       O388   2.452       .  S
Cd383       O384   2.469       .  S
Cd383       O387   2.467       .  S
Cd383       O385   2.456       .  S
C386        O390   1.265       .  A
C386        C526   1.476       .  S
O391        C394   1.265       .  A
O391       Cd396   2.470       .  S
C392        O401   1.264       .  A
C392        O397   1.265       .  A
C392        C781   1.477       .  S
O393        C399   1.264       .  A
O393       Cd396   2.471       .  S
C394        O402   1.265       .  A
C394        C445   1.483       .  S
C395        O400   1.264       .  A
C395        O398   1.267       .  A
C395        C598   1.486       .  S
Cd396       O403   2.473       .  S
Cd396       O402   2.449       .  S
Cd396       O401   2.461       .  S
Cd396       O397   2.468       .  S
Cd396       O400   2.448       .  S
Cd396       O398   2.476       .  S
C399        O403   1.264       .  A
C399        C421   1.482       .  S
O404        C407   1.268       .  A
O404       Cd409   2.480       .  S
C405        O414   1.263       .  A
C405        O410   1.267       .  A
C405        C742   1.486       .  S
O406        C412   1.264       .  A
O406       Cd409   2.470       .  S
C407        O415   1.264       .  A
C407        C478   1.483       .  S
C408        O413   1.266       .  A
C408        O411   1.266       .  A
C408        C637   1.476       .  S
Cd409       O416   2.460       .  S
Cd409       O415   2.450       .  S
Cd409       O414   2.461       .  S
Cd409       O410   2.491       .  S
Cd409       O413   2.463       .  S
Cd409       O411   2.454       .  S
C412        O416   1.262       .  A
C412        C430   1.473       .  S
C417        C418   1.403       .  A
C417        C422   1.399       .  A
C417        H427   1.084   1_655  S
C418        C423   1.484   1_655  S
C418        C419   1.413       .  A
C419        C420   1.400       .  A
C419        S424   1.805       .  S
C420        C421   1.406       .  A
C420        H425   1.084       .  S
C421        C422   1.415       .  A
C422        S426   1.802       .  S
C423        C428   1.412       .  A
C423        C432   1.403       .  A
S424        H440   1.406       .  S
S426        H437   1.407       .  S
C428        C429   1.403       .  A
C428        S433   1.807       .  S
C429        C430   1.404       .  A
C429        H434   1.083       .  S
C430        C431   1.412       .  A
C431        C432   1.398       .  A
C431        S435   1.804       .  S
C432        H436   1.084   1_455  S
S433        H438   1.407       .  S
S435        H439   1.407       .  S
C441        C442   1.402       .  A
C441        C446   1.404       .  A
C441        H451   1.083       .  S
C442        C447   1.478       .  S
C442        C443   1.409       .  A
C443        C444   1.395       .  A
C443        S448   1.804       .  S
C444        C445   1.406       .  A
C444        H449   1.084       .  S
C445        C446   1.417       .  A
C446        S450   1.808       .  S
C447        C452   1.408       .  A
C447        C456   1.401       .  A
S448        H464   1.406       .  S
S450        H461   1.407       .  S
C452        C453   1.402       .  A
C452        S457   1.807       .  S
C453        C454   1.406       .  A
C453        H458   1.083       .  S
C454        C455   1.416       .  A
C455        C456   1.396       .  A
C455        S459   1.802       .  S
C456        H460   1.084       .  S
S457        H462   1.407       .  S
S459        H463   1.407       .  S
C465        C466   1.402       .  A
C465        C470   1.402       .  A
C465        H475   1.084       .  S
C466        C471   1.478       .  S
C466        C467   1.410       .  A
C467        C468   1.396       .  A
C467        S472   1.804       .  S
C468        C469   1.406       .  A
C468        H473   1.084       .  S
C469        C470   1.416       .  A
C470        S474   1.802       .  S
C471        C476   1.408       .  A
C471        C480   1.400       .  A
S472        H488   1.405       .  S
S474        H485   1.407       .  S
C476        C477   1.403       .  A
C476        S481   1.806       .  S
C477        C478   1.406       .  A
C477        H482   1.083       .  S
C478        C479   1.417       .  A
C479        C480   1.399       .  A
C479        S483   1.803       .  S
C480        H484   1.084       .  S
S481        H486   1.407       .  S
S483        H487   1.407       .  S
C489        C490   1.401       .  A
C489        C494   1.401       .  A
C489        H499   1.084       .  S
C490        C495   1.479       .  S
C490        C491   1.411       .  A
C491        C492   1.398       .  A
C491        S496   1.804       .  S
C492        C493   1.406       .  A
C492        H497   1.084       .  S
C493        C494   1.417       .  A
C494        S498   1.802       .  S
C495        C500   1.407       .  A
C495        C504   1.400       .  A
S496        H512   1.405       .  S
S498        H509   1.408       .  S
C500        C501   1.403       .  A
C500        S505   1.807       .  S
C501        C502   1.408       .  A
C501        H506   1.082       .  S
C502        C503   1.419       .  A
C503        C504   1.400       .  A
C503        S507   1.801       .  S
C504        H508   1.084       .  S
S505        H510   1.407       .  S
S507        H511   1.407       .  S
C513        C514   1.403       .  A
C513        C518   1.399       .  A
C513        H523   1.084       .  S
C514        C519   1.481       .  S
C514        C515   1.412       .  A
C515        C516   1.397       .  A
C515        S520   1.804       .  S
C516        C517   1.403       .  A
C516        H521   1.084       .  S
C517        C518   1.416       .  A
C518        S522   1.803       .  S
C519        C524   1.410       .  A
C519        C528   1.402       .  A
S520        H536   1.406       .  S
S522        H533   1.407       .  S
C524        C525   1.403       .  A
C524        S529   1.807       .  S
C525        C526   1.405       .  A
C525        H530   1.083       .  S
C526        C527   1.414       .  A
C527        C528   1.396       .  A
C527        S531   1.803       .  S
C528        H532   1.084       .  S
S529        H534   1.407       .  S
S531        H535   1.407       .  S
C537        C538   1.402       .  A
C537        C542   1.398       .  A
C537        H547   1.084       .  S
C538        C543   1.481   1_565  S
C538        C539   1.412       .  A
C539        C540   1.400       .  A
C539        S544   1.804       .  S
C540        C541   1.406       .  A
C540        H545   1.084       .  S
C541        C542   1.416       .  A
C542        S546   1.802       .  S
C543        C548   1.410       .  A
C543        C552   1.400       .  A
S544        H560   1.406       .  S
S546        H557   1.407       .  S
C548        C549   1.404       .  A
C548        S553   1.807       .  S
C549        C550   1.407       .  A
C549        H554   1.082       .  S
C550        C551   1.416       .  A
C551        C552   1.398       .  A
C551        S555   1.802       .  S
C552        H556   1.084       .  S
S553        H558   1.407       .  S
S555        H559   1.408       .  S
C561        C562   1.400       .  A
C561        C566   1.398       .  A
C561        H571   1.084       .  S
C562        C567   1.474       .  S
C562        C563   1.409       .  A
C563        C564   1.397       .  A
C563        S568   1.805       .  S
C564        C565   1.408       .  A
C564        H569   1.083       .  S
C565        C566   1.418       .  A
C566        S570   1.801       .  S
C567        C572   1.407       .  A
C567        C576   1.400       .  A
S568        H584   1.405       .  S
S570        H581   1.407       .  S
C572        C573   1.400       .  A
C572        S577   1.807       .  S
C573        C574   1.406       .  A
C573        H578   1.083       .  S
C574        C575   1.416       .  A
C575        C576   1.399       .  A
C575        S579   1.802       .  S
C576        H580   1.084       .  S
S577        H582   1.407       .  S
S579        H583   1.407       .  S
C585        C586   1.401       .  A
C585        C590   1.400       .  A
C585        H595   1.084       .  S
C586        C591   1.477   1_545  S
C586        C587   1.410       .  A
C587        C588   1.398       .  A
C587        S592   1.804       .  S
C588        C589   1.406       .  A
C588        H593   1.084       .  S
C589        C590   1.417       .  A
C590        S594   1.802       .  S
C591        C596   1.407       .  A
C591        C600   1.398       .  A
S592        H608   1.405       .  S
S594        H605   1.407       .  S
C596        C597   1.404       .  A
C596        S601   1.806   1_565  S
C597        C598   1.408       .  A
C597        H602   1.083       .  S
C598        C599   1.418       .  A
C599        C600   1.398       .  A
C599        S603   1.802       .  S
C600        H604   1.084       .  S
S601        H606   1.407   1_545  S
S603        H607   1.408       .  S
C609        C610   1.400       .  A
C609        C614   1.399       .  A
C609        H619   1.084       .  S
C610        C615   1.481       .  S
C610        C611   1.412       .  A
C611        C612   1.401       .  A
C611        S616   1.805       .  S
C612        C613   1.406       .  A
C612        H617   1.084       .  S
C613        C614   1.419       .  A
C614        S618   1.803       .  S
C615        C620   1.408       .  A
C615        C624   1.401       .  A
S616        H632   1.406       .  S
S618        H629   1.408       .  S
C620        C621   1.403       .  A
C620        S625   1.806       .  S
C621        C622   1.406       .  A
C621        H626   1.083       .  S
C622        C623   1.417       .  A
C623        C624   1.402       .  A
C623        S627   1.809       .  S
C624        H628   1.083       .  S
S625        H630   1.407       .  S
S627        H631   1.406       .  S
C633        C634   1.402       .  A
C633        C638   1.399       .  A
C633        H643   1.084       .  S
C634        C639   1.478       .  S
C634        C635   1.411       .  A
C635        C636   1.398       .  A
C635        S640   1.804       .  S
C636        C637   1.404       .  A
C636        H641   1.084       .  S
C637        C638   1.414       .  A
C638        S642   1.802       .  S
C639        C644   1.408       .  A
C639        C648   1.401       .  A
S640        H656   1.406       .  S
S642        H653   1.407       .  S
C644        C645   1.402       .  A
C644        S649   1.806       .  S
C645        C646   1.406       .  A
C645        H650   1.083       .  S
C646        C647   1.415       .  A
C647        C648   1.397       .  A
C647        S651   1.802       .  S
C648        H652   1.084       .  S
S649        H654   1.407       .  S
S651        H655   1.408       .  S
C657        C658   1.401       .  A
C657        C662   1.398       .  A
C657        H667   1.084       .  S
C658        C663   1.483       .  S
C658        C659   1.413       .  A
C659        C660   1.400       .  A
C659        S664   1.804       .  S
C660        C661   1.404       .  A
C660        H665   1.084       .  S
C661        C662   1.417       .  A
C662        S666   1.802       .  S
C663        C668   1.409       .  A
C663        C672   1.401       .  A
S664        H680   1.406       .  S
S666        H677   1.405       .  S
C668        C669   1.405       .  A
C668        S673   1.807       .  S
C669        C670   1.408       .  A
C669        H674   1.083       .  S
C670        C671   1.417       .  A
C671        C672   1.398       .  A
C671        S675   1.802       .  S
C672        H676   1.084       .  S
S673        H678   1.407       .  S
S675        H679   1.408       .  S
C681        C682   1.400       .  A
C681        C686   1.398       .  A
C681        H691   1.084       .  S
C682        C687   1.473   1_655  S
C682        C683   1.410       .  A
C683        C684   1.396       .  A
C683        S688   1.806       .  S
C684        C685   1.406       .  A
C684        H689   1.084       .  S
C685        C686   1.416       .  A
C686        S690   1.799       .  S
C687        C692   1.406       .  A
C687        C696   1.398       .  A
S688        H704   1.405   1_655  S
S690        H701   1.407       .  S
C692        C693   1.401       .  A
C692        S697   1.807   1_455  S
C693        C694   1.407       .  A
C693        H698   1.082       .  S
C694        C695   1.418       .  A
C695        C696   1.400       .  A
C695        S699   1.808       .  S
C696        H700   1.083       .  S
S697        H702   1.407       .  S
S699        H703   1.407       .  S
C705        C706   1.401       .  A
C705        C710   1.400       .  A
C705        H715   1.084       .  S
C706        C711   1.475   1_455  S
C706        C707   1.410       .  A
C707        C708   1.396       .  A
C707        S712   1.805   1_455  S
C708        C709   1.405       .  A
C708        H713   1.084       .  S
C709        C710   1.417       .  A
C710        S714   1.802       .  S
C711        C716   1.407   1_655  A
C711        C720   1.400       .  A
S712        H728   1.405       .  S
S714        H725   1.408       .  S
C716        C717   1.400   1_455  A
C716        S721   1.808       .  S
C717        C718   1.407       .  A
C717        H722   1.083       .  S
C718        C719   1.416       .  A
C719        C720   1.400       .  A
C719        S723   1.802       .  S
C720        H724   1.084       .  S
S721        H726   1.407       .  S
S723        H727   1.407       .  S
C729        C730   1.402       .  A
C729        C734   1.400       .  A
C729        H739   1.084       .  S
C730        C735   1.484       .  S
C730        C731   1.413       .  A
C731        C732   1.402       .  A
C731        S736   1.804       .  S
C732        C733   1.405       .  A
C732        H737   1.084       .  S
C733        C734   1.416       .  A
C734        S738   1.803       .  S
C735        C740   1.410       .  A
C735        C744   1.401       .  A
S736        H752   1.406       .  S
S738        H749   1.408       .  S
C740        C741   1.405       .  A
C740        S745   1.807       .  S
C741        C742   1.406       .  A
C741        H746   1.082       .  S
C742        C743   1.418       .  A
C743        C744   1.400       .  A
C743        S747   1.802       .  S
C744        H748   1.084       .  S
S745        H750   1.407       .  S
S747        H751   1.407       .  S
C753        C754   1.402       .  A
C753        C758   1.404       .  A
C753        H763   1.083       .  S
C754        C759   1.475   1_455  S
C754        C755   1.409       .  A
C755        C756   1.396       .  A
C755        S760   1.806   1_455  S
C756        C757   1.406       .  A
C756        H761   1.084       .  S
C757        C758   1.415       .  A
C758        S762   1.807       .  S
C759        C764   1.407       .  A
C759        C768   1.400   1_655  A
S760        H776   1.405       .  S
S762        H773   1.407       .  S
C764        C765   1.401       .  A
C764        S769   1.806       .  S
C765        C766   1.404       .  A
C765        H770   1.083       .  S
C766        C767   1.415       .  A
C767        C768   1.398   1_655  A
C767        S771   1.803   1_655  S
C768        H772   1.084       .  S
S769        H774   1.407       .  S
S771        H775   1.407   1_455  S
C777        C778   1.404       .  A
C777        C782   1.402       .  A
C777        H787   1.084       .  S
C778        C783   1.483       .  S
C778        C779   1.413       .  A
C779        C780   1.397       .  A
C779        S784   1.804       .  S
C780        C781   1.402       .  A
C780        H785   1.084       .  S
C781        C782   1.414       .  A
C782        S786   1.803       .  S
C783        C788   1.411       .  A
C783        C792   1.401       .  A
S784        H800   1.406       .  S
S786        H797   1.407       .  S
C788        C789   1.405       .  A
C788        S793   1.807       .  S
C789        C790   1.406       .  A
C789        H794   1.083       .  S
C790        C791   1.415       .  A
C791        C792   1.398       .  A
C791        S795   1.803       .  S
C792        H796   1.084       .  S
S793        H798   1.407       .  S
S795        H799   1.407       .  S
C801        C802   1.401       .  A
C801        C806   1.399   1_455  A
C801        H811   1.084       .  S
C802        C807   1.478   1_565  S
C802        C803   1.412   1_455  A
C803        C804   1.398       .  A
C803        S808   1.806       .  S
C804        C805   1.406       .  A
C804        H809   1.084       .  S
C805        C806   1.417       .  A
C806        S810   1.801       .  S
C807        C812   1.409   1_545  A
C807        C816   1.400       .  A
S808        H824   1.405   1_565  S
S810        H821   1.408       .  S
C812        C813   1.404   1_565  A
C812        S817   1.806       .  S
C813        C814   1.406       .  A
C813        H818   1.083       .  S
C814        C815   1.417       .  A
C815        C816   1.397       .  A
C815        S819   1.803       .  S
C816        H820   1.084       .  S
S817        H822   1.407       .  S
S819        H823   1.407       .  S
C825        C826   1.400       .  A
C825        C830   1.399       .  A
C825        H835   1.084       .  S
C826        C831   1.474   1_655  S
C826        C827   1.410       .  A
C827        C828   1.396       .  A
C827        S832   1.807   1_655  S
C828        C829   1.407       .  A
C828        H833   1.083       .  S
C829        C830   1.419       .  A
C830        S834   1.801       .  S
C831        C836   1.407       .  A
C831        C840   1.400   1_455  A
S832        H848   1.404       .  S
S834        H845   1.407       .  S
C836        C837   1.401       .  A
C836        S841   1.806       .  S
C837        C838   1.406       .  A
C837        H842   1.083       .  S
C838        C839   1.416       .  A
C839        C840   1.397   1_455  A
C839        S843   1.803   1_455  S
C840        H844   1.084       .  S
S841        H846   1.407       .  S
S843        H847   1.408   1_655  S
C849        C850   1.400       .  A
C849        C854   1.398       .  A
C849        H859   1.084       .  S
C850        C855   1.475       .  S
C850        C851   1.411       .  A
C851        C852   1.398       .  A
C851        S856   1.806       .  S
C852        C853   1.406       .  A
C852        H857   1.084       .  S
C853        C854   1.415       .  A
C854        S858   1.802       .  S
C855        C860   1.408       .  A
C855        C864   1.400       .  A
S856        H872   1.405       .  S
S858        H869   1.408       .  S
C860        C861   1.401       .  A
C860        S865   1.807       .  S
C861        C862   1.405       .  A
C861        H866   1.083       .  S
C862        C863   1.416       .  A
C863        C864   1.399       .  A
C863        S867   1.802       .  S
C864        H868   1.084       .  S
S865        H870   1.407       .  S
S867        H871   1.407       .  S
C873        C874   1.402       .  A
C873        C878   1.398       .  A
C873        H883   1.084       .  S
C874        C879   1.477       .  S
C874        C875   1.411       .  A
C875        C876   1.399       .  A
C875        S880   1.804       .  S
C876        C877   1.404       .  A
C876        H881   1.084       .  S
C877        C878   1.414       .  A
C878        S882   1.803       .  S
C879        C884   1.407       .  A
C879        C888   1.401       .  A
S880        H896   1.406       .  S
S882        H893   1.407       .  S
C884        C885   1.402       .  A
C884        S889   1.807       .  S
C885        C886   1.406       .  A
C885        H890   1.083       .  S
C886        C887   1.416       .  A
C887        C888   1.399       .  A
C887        S891   1.802       .  S
C888        H892   1.084       .  S
S889        H894   1.407       .  S
S891        H895   1.408       .  S
C897        C898   1.402       .  A
C897        C902   1.400       .  A
C897        H907   1.084       .  S
C898        C903   1.481       .  S
C898        C899   1.412       .  A
C899        C900   1.398       .  A
C899        S904   1.804       .  S
C900        C901   1.405       .  A
C900        H905   1.084       .  S
C901        C902   1.417       .  A
C902        S906   1.801       .  S
C903        C908   1.409       .  A
C903        C912   1.401       .  A
S904        H920   1.406       .  S
S906        H917   1.406       .  S
C908        C909   1.405       .  A
C908        S913   1.806       .  S
C909        C910   1.406       .  A
C909        H914   1.082       .  S
C910        C911   1.417       .  A
C911        C912   1.397       .  A
C911        S915   1.803       .  S
C912        H916   1.084       .  S
S913        H918   1.407       .  S
S915        H919   1.407       .  S
C921        C922   1.401       .  A
C921        C926   1.401       .  A
C921        H931   1.084       .  S
C922        C927   1.480       .  S
C922        C923   1.411       .  A
C923        C924   1.399       .  A
C923        S928   1.804       .  S
C924        C925   1.406       .  A
C924        H929   1.084       .  S
C925        C926   1.418       .  A
C926        S930   1.802       .  S
C927        C932   1.407       .  A
C927        C936   1.401       .  A
S928        H944   1.405       .  S
S930        H941   1.408       .  S
C932        C933   1.402       .  A
C932        S937   1.806       .  S
C933        C934   1.406       .  A
C933        H938   1.082       .  S
C934        C935   1.418       .  A
C935        C936   1.402       .  A
C935        S939   1.801       .  S
C936        H940   1.084       .  S
S937        H942   1.407       .  S
S939        H943   1.406       .  S
C945        C946   1.401       .  A
C945        C950   1.399       .  A
C945        H955   1.084       .  S
C946        C951   1.478       .  S
C946        C947   1.410       .  A
C947        C948   1.400       .  A
C947        S952   1.804       .  S
C948        C949   1.407       .  A
C948        H953   1.084       .  S
C949        C950   1.418       .  A
C950        S954   1.802       .  S
C951        C956   1.407       .  A
C951        C960   1.399       .  A
S952        H968   1.405       .  S
S954        H965   1.408       .  S
C956        C957   1.402       .  A
C956        S961   1.806       .  S
C957        C958   1.408       .  A
C957        H962   1.082       .  S
C958        C959   1.419       .  A
C959        C960   1.400       .  A
C959        S963   1.801       .  S
C960        H964   1.084       .  S
S961        H966   1.407       .  S
S963        H967   1.404       .  S
C969        C970   1.401       .  A
C969        C974   1.399       .  A
C969        H979   1.084       .  S
C970        C975   1.480       .  S
C970        C971   1.413       .  A
C971        C972   1.402       .  A
C971        S976   1.804       .  S
C972        C973   1.405       .  A
C972        H977   1.084       .  S
C973        C974   1.415       .  A
C974        S978   1.803       .  S
C975        C980   1.409       .  A
C975        C984   1.401       .  A
S976        H992   1.405       .  S
S978        H989   1.407       .  S
C980        C981   1.405       .  A
C980        S985   1.806       .  S
C981        C982   1.406       .  A
C981        H986   1.083       .  S
C982        C983   1.415       .  A
C983        C984   1.398       .  A
C983        S987   1.803       .  S
C984        H988   1.084       .  S
S985        H990   1.407       .  S
S987        H991   1.407       .  S
C993        C994   1.402       .  A
C993        C998   1.400       .  A
C993       H1003   1.084   1_565  S
C994        C999   1.480   1_565  S
C994        C995   1.412       .  A
C995        C996   1.399       .  A
C995       S1000   1.805       .  S
C996        C997   1.405       .  A
C996       H1001   1.084       .  S
C997        C998   1.415       .  A
C998       S1002   1.802       .  S
C999       C1004   1.410       .  A
C999       C1008   1.399       .  A
S1000      H1016   1.405   1_565  S
S1002      H1013   1.407       .  S
C1004      C1005   1.406       .  A
C1004      S1009   1.806   1_545  S
C1005      C1006   1.405       .  A
C1005      H1010   1.083       .  S
C1006      C1007   1.415       .  A
C1007      C1008   1.396       .  A
C1007      S1011   1.803       .  S
C1008      H1012   1.084       .  S
S1009      H1014   1.407       .  S
S1011      H1015   1.405       .  S
C1017      C1018   1.400       .  A
C1017      C1022   1.397       .  A
C1017      H1027   1.084       .  S
C1018      C1023   1.479       .  S
C1018      C1019   1.411       .  A
C1019      C1020   1.401       .  A
C1019      S1024   1.804       .  S
C1020      C1021   1.406       .  A
C1020      H1025   1.084       .  S
C1021      C1022   1.417       .  A
C1022      S1026   1.802       .  S
C1023      C1028   1.409       .  A
C1023      C1032   1.401       .  A
S1024      H1040   1.406       .  S
S1026      H1037   1.407       .  S
C1028      C1029   1.401       .  A
C1028      S1033   1.806       .  S
C1029      C1030   1.405       .  A
C1029      H1034   1.083       .  S
C1030      C1031   1.416       .  A
C1031      C1032   1.399       .  A
C1031      S1035   1.803       .  S
C1032      H1036   1.084       .  S
S1033      H1038   1.407       .  S
S1035      H1039   1.407       .  S
C1041      C1042   1.401       .  A
C1041      C1046   1.406       .  A
C1041      H1051   1.083       .  S
C1042      C1047   1.482       .  S
C1042      C1043   1.411       .  A
C1043      C1044   1.399       .  A
C1043      S1048   1.805       .  S
C1044      C1045   1.405       .  A
C1044      H1049   1.084       .  S
C1045      C1046   1.418       .  A
C1046      S1050   1.809       .  S
C1047      C1052   1.407       .  A
C1047      C1056   1.401       .  A
S1048      H1064   1.404       .  S
S1050      H1061   1.407       .  S
C1052      C1053   1.404       .  A
C1052      S1057   1.806       .  S
C1053      C1054   1.409       .  A
C1053      H1058   1.082       .  S
C1054      C1055   1.419       .  A
C1055      C1056   1.401       .  A
C1055      S1059   1.801       .  S
C1056      H1060   1.084       .  S
S1057      H1062   1.407       .  S
S1059      H1063   1.408       .  S
C1065      C1066   1.402       .  A
C1065      C1070   1.397       .  A
C1065      H1075   1.084       .  S
C1066      C1071   1.482       .  S
C1066      C1067   1.413       .  A
C1067      C1068   1.400       .  A
C1067      S1072   1.804       .  S
C1068      C1069   1.404       .  A
C1068      H1073   1.084       .  S
C1069      C1070   1.416       .  A
C1070      S1074   1.803       .  S
C1071      C1076   1.410       .  A
C1071      C1080   1.403       .  A
S1072      H1088   1.406       .  S
S1074      H1085   1.407       .  S
C1076      C1077   1.401       .  A
C1076      S1081   1.808       .  S
C1077      C1078   1.406       .  A
C1077      H1082   1.083       .  S
C1078      C1079   1.415       .  A
C1079      C1080   1.399       .  A
C1079      S1083   1.802       .  S
C1080      H1084   1.084       .  S
S1081      H1086   1.407       .  S
S1083      H1087   1.407       .  S
C1089      C1090   1.400       .  A
C1089      C1094   1.398       .  A
C1089      H1099   1.084       .  S
C1090      C1095   1.476       .  S
C1090      C1091   1.411       .  A
C1091      C1092   1.398       .  A
C1091      S1096   1.804       .  S
C1092      C1093   1.405       .  A
C1092      H1097   1.084       .  S
C1093      C1094   1.417       .  A
C1094      S1098   1.803       .  S
C1095      C1100   1.408       .  A
C1095      C1104   1.400       .  A
S1096      H1112   1.406       .  S
S1098      H1109   1.407       .  S
C1100      C1101   1.401       .  A
C1100      S1105   1.807       .  S
C1101      C1102   1.405       .  A
C1101      H1106   1.083       .  S
C1102      C1103   1.416       .  A
C1103      C1104   1.398       .  A
C1103      S1107   1.803       .  S
C1104      H1108   1.084       .  S
S1105      H1110   1.407       .  S
S1107      H1111   1.407       .  S
C1113      C1114   1.399       .  A
C1113      C1118   1.394       .  A
C1113      H1123   1.084       .  S
C1114      C1119   1.477       .  S
C1114      C1115   1.412       .  A
C1115      C1116   1.403       .  A
C1115      S1120   1.804       .  S
C1116      C1117   1.406       .  A
C1116      H1121   1.084       .  S
C1117      C1118   1.415       .  A
C1118      S1122   1.804       .  S
C1119      C1124   1.409       .  A
C1119      C1128   1.400       .  A
S1120      H1136   1.406       .  S
S1122      H1133   1.408       .  S
C1124      C1125   1.403       .  A
C1124      S1129   1.807       .  S
C1125      C1126   1.405       .  A
C1125      H1130   1.083       .  S
C1126      C1127   1.415       .  A
C1127      C1128   1.397       .  A
C1127      S1131   1.803       .  S
C1128      H1132   1.084       .  S
S1129      H1134   1.407       .  S
S1131      H1135   1.407       .  S
C1137      C1138   1.400       .  A
C1137      C1142   1.397       .  A
C1137      H1147   1.084       .  S
C1138      C1143   1.478       .  S
C1138      C1139   1.413   1_556  A
C1139      C1140   1.400       .  A
C1139      S1144   1.805       .  S
C1140      C1141   1.404       .  A
C1140      H1145   1.084       .  S
C1141      C1142   1.416   1_554  A
C1142      S1146   1.804       .  S
C1143      C1148   1.408       .  A
C1143      C1152   1.401       .  A
S1144      H1160   1.405       .  S
S1146      H1157   1.408   1_556  S
C1148      C1149   1.400       .  A
C1148      S1153   1.807   1_556  S
C1149      C1150   1.406       .  A
C1149      H1154   1.082       .  S
C1150      C1151   1.417       .  A
C1151      C1152   1.400       .  A
C1151      S1155   1.802       .  S
C1152      H1156   1.084       .  S
S1153      H1158   1.407       .  S
S1155      H1159   1.408       .  S
C1161      C1162   1.401       .  A
C1161      C1166   1.398       .  A
C1161      H1171   1.084       .  S
C1162      C1167   1.478       .  S
C1162      C1163   1.414       .  A
C1163      C1164   1.401       .  A
C1163      S1168   1.806       .  S
C1164      C1165   1.405       .  A
C1164      H1169   1.084       .  S
C1165      C1166   1.414       .  A
C1166      S1170   1.803       .  S
C1167      C1172   1.408       .  A
C1167      C1176   1.401       .  A
S1168      H1184   1.404       .  S
S1170      H1181   1.407       .  S
C1172      C1173   1.404       .  A
C1172      S1177   1.806       .  S
C1173      C1174   1.407       .  A
C1173      H1178   1.083       .  S
C1174      C1175   1.415       .  A
C1175      C1176   1.398       .  A
C1175      S1179   1.802       .  S
C1176      H1180   1.084       .  S
S1177      H1182   1.407       .  S
S1179      H1183   1.407       .  S
C1185      C1186   1.404   1_565  A
C1185      C1190   1.398   1_565  A
C1185      H1195   1.084       .  S
C1186      C1191   1.479   1_546  S
C1186      C1187   1.412       .  A
C1187      C1188   1.395       .  A
C1187      S1192   1.804   1_556  S
C1188      C1189   1.404       .  A
C1188      H1193   1.084       .  S
C1189      C1190   1.413       .  A
C1190      S1194   1.803       .  S
C1191      C1196   1.409   1_554  A
C1191      C1200   1.402       .  A
S1192      H1208   1.406       .  S
S1194      H1205   1.407       .  S
C1196      C1197   1.400   1_556  A
C1196      S1201   1.807       .  S
C1197      C1198   1.405       .  A
C1197      H1202   1.083   1_554  S
C1198      C1199   1.415       .  A
C1199      C1200   1.398       .  A
C1199      S1203   1.803       .  S
C1200      H1204   1.084       .  S
S1201      H1206   1.407       .  S
S1203      H1207   1.407       .  S
C1209      C1210   1.402       .  A
C1209      C1214   1.402       .  A
C1209      H1219   1.084       .  S
C1210      C1215   1.481       .  S
C1210      C1211   1.410       .  A
C1211      C1212   1.398       .  A
C1211      S1216   1.804       .  S
C1212      C1213   1.406       .  A
C1212      H1217   1.084       .  S
C1213      C1214   1.418       .  A
C1214      S1218   1.802       .  S
C1215      C1220   1.407       .  A
C1215      C1224   1.401       .  A
S1216      H1232   1.406       .  S
S1218      H1229   1.407       .  S
C1220      C1221   1.402       .  A
C1220      S1225   1.807       .  S
C1221      C1222   1.408       .  A
C1221      H1226   1.082       .  S
C1222      C1223   1.418       .  A
C1223      C1224   1.401       .  A
C1223      S1227   1.801       .  S
C1224      H1228   1.084       .  S
S1225      H1230   1.407       .  S
S1227      H1231   1.408       .  S
C1233      C1234   1.402       .  A
C1233      C1238   1.399       .  A
C1233      H1243   1.084       .  S
C1234      C1239   1.477   1_554  S
C1234      C1235   1.411   1_554  A
C1235      C1236   1.397   1_556  A
C1235      S1240   1.804       .  S
C1236      C1237   1.404       .  A
C1236      H1241   1.084   1_554  S
C1237      C1238   1.416       .  A
C1238      S1242   1.803       .  S
C1239      C1244   1.408   1_556  A
C1239      C1248   1.400       .  A
S1240      H1256   1.406       .  S
S1242      H1253   1.407       .  S
C1244      C1245   1.402   1_554  A
C1244      S1249   1.807       .  S
C1245      C1246   1.406       .  A
C1245      H1250   1.082       .  S
C1246      C1247   1.417       .  A
C1247      C1248   1.398       .  A
C1247      S1251   1.802       .  S
C1248      H1252   1.084       .  S
S1249      H1254   1.407       .  S
S1251      H1255   1.408       .  S
C1257      C1258   1.401   1_556  A
C1257      C1262   1.398   1_556  A
C1257      H1267   1.085       .  S
C1258      C1263   1.478   1_554  S
C1258      C1259   1.411       .  A
C1259      C1260   1.401       .  A
C1259      S1264   1.805       .  S
C1260      C1261   1.405       .  A
C1260      H1265   1.084       .  S
C1261      C1262   1.415       .  A
C1262      S1266   1.803   1_554  S
C1263      C1268   1.408       .  A
C1263      C1272   1.401   1_556  A
S1264      H1280   1.405       .  S
S1266      H1277   1.407       .  S
C1268      C1269   1.401       .  A
C1268      S1273   1.807       .  S
C1269      C1270   1.405       .  A
C1269      H1274   1.083       .  S
C1270      C1271   1.415       .  A
C1271      C1272   1.400   1_556  A
C1271      S1275   1.803   1_556  S
C1272      H1276   1.084       .  S
S1273      H1278   1.407       .  S
S1275      H1279   1.408       .  S
C1281      C1282   1.401       .  A
C1281      C1286   1.397   1_455  A
C1281      H1291   1.084       .  S
C1282      C1287   1.479       .  S
C1282      C1283   1.413   1_455  A
C1283      C1284   1.400       .  A
C1283      S1288   1.806       .  S
C1284      C1285   1.407       .  A
C1284      H1289   1.084       .  S
C1285      C1286   1.417       .  A
C1286      S1290   1.802   1_655  S
C1287      C1292   1.409       .  A
C1287      C1296   1.400       .  A
S1288      H1304   1.405       .  S
S1290      H1301   1.408   1_455  S
C1292      C1293   1.403       .  A
C1292      S1297   1.806       .  S
C1293      C1294   1.407       .  A
C1293      H1298   1.082       .  S
C1294      C1295   1.417       .  A
C1295      C1296   1.397       .  A
C1295      S1299   1.803       .  S
C1296      H1300   1.084       .  S
S1297      H1302   1.407       .  S
S1299      H1303   1.406       .  S
C1305      C1306   1.402       .  A
C1305      C1310   1.400       .  A
C1305      H1315   1.084       .  S
C1306      C1311   1.482       .  S
C1306      C1307   1.412       .  A
C1307      C1308   1.400       .  A
C1307      S1312   1.804       .  S
C1308      C1309   1.404       .  A
C1308      H1313   1.084       .  S
C1309      C1310   1.415       .  A
C1310      S1314   1.803       .  S
C1311      C1316   1.410       .  A
C1311      C1320   1.402       .  A
S1312      H1328   1.406       .  S
S1314      H1325   1.407       .  S
C1316      C1317   1.403       .  A
C1316      S1321   1.806       .  S
C1317      C1318   1.404       .  A
C1317      H1322   1.083       .  S
C1318      C1319   1.416       .  A
C1319      C1320   1.399       .  A
C1319      S1323   1.804       .  S
C1320      H1324   1.084       .  S
S1321      H1326   1.407       .  S
S1323      H1327   1.407       .  S
C1329      C1330   1.402   1_556  A
C1329      C1334   1.398   1_556  A
C1329      H1339   1.084       .  S
C1330      C1335   1.481   1_554  S
C1330      C1331   1.412       .  A
C1331      C1332   1.398       .  A
C1331      S1336   1.804       .  S
C1332      C1333   1.405       .  A
C1332      H1337   1.084       .  S
C1333      C1334   1.416       .  A
C1334      S1338   1.802   1_554  S
C1335      C1340   1.410       .  A
C1335      C1344   1.401       .  A
S1336      H1352   1.406       .  S
S1338      H1349   1.407       .  S
C1340      C1341   1.402       .  A
C1340      S1345   1.808   1_556  S
C1341      C1342   1.407       .  A
C1341      H1346   1.082       .  S
C1342      C1343   1.417       .  A
C1343      C1344   1.397       .  A
C1343      S1347   1.802       .  S
C1344      H1348   1.084       .  S
S1345      H1350   1.407       .  S
S1347      H1351   1.408       .  S
C1353      C1354   1.402       .  A
C1353      C1358   1.397   1_456  A
C1353      H1363   1.084       .  S
C1354      C1359   1.481   1_545  S
C1354      C1355   1.413   1_446  A
C1355      C1356   1.399   1_565  A
C1355      S1360   1.804       .  S
C1356      C1357   1.403       .  A
C1356      H1361   1.084       .  S
C1357      C1358   1.416       .  A
C1358      S1362   1.804   1_554  S
C1359      C1364   1.411       .  A
C1359      C1368   1.402       .  A
S1360      H1376   1.406       .  S
S1362      H1373   1.406   1_556  S
C1364      C1365   1.403       .  A
C1364      S1369   1.807   1_455  S
C1365      C1366   1.404       .  A
C1365      H1370   1.083       .  S
C1366      C1367   1.415       .  A
C1367      C1368   1.397       .  A
C1367      S1371   1.803   1_556  S
C1368      H1372   1.084   1_556  S
S1369      H1374   1.407   1_655  S
S1371      H1375   1.407   1_554  S
C1377      C1378   1.402       .  A
C1377      C1382   1.400       .  A
C1377      H1387   1.084       .  S
C1378      C1383   1.478       .  S
C1378      C1379   1.410       .  A
C1379      C1380   1.397       .  A
C1379      S1384   1.804       .  S
C1380      C1381   1.406       .  A
C1380      H1385   1.084       .  S
C1381      C1382   1.415       .  A
C1382      S1386   1.801       .  S
C1383      C1388   1.408       .  A
C1383      C1392   1.401       .  A
S1384      H1400   1.406       .  S
S1386      H1397   1.408       .  S
C1388      C1389   1.403       .  A
C1388      S1393   1.806       .  S
C1389      C1390   1.405       .  A
C1389      H1394   1.083       .  S
C1390      C1391   1.416       .  A
C1391      C1392   1.397       .  A
C1391      S1395   1.804       .  S
C1392      H1396   1.084       .  S
S1393      H1398   1.407       .  S
S1395      H1399   1.407       .  S
C1401      C1402   1.402       .  A
C1401      C1406   1.399       .  A
C1401      H1411   1.084       .  S
C1402      C1407   1.480       .  S
C1402      C1403   1.412       .  A
C1403      C1404   1.399       .  A
C1403      S1408   1.805   1_556  S
C1404      C1405   1.406       .  A
C1404      H1409   1.084       .  S
C1405      C1406   1.416       .  A
C1406      S1410   1.802       .  S
C1407      C1412   1.410       .  A
C1407      C1416   1.402   1_556  A
S1408      H1424   1.406       .  S
S1410      H1421   1.407       .  S
C1412      C1413   1.402   1_556  A
C1412      S1417   1.807       .  S
C1413      C1414   1.403       .  A
C1413      H1418   1.083   1_554  S
C1414      C1415   1.413       .  A
C1415      C1416   1.399       .  A
C1415      S1419   1.804       .  S
C1416      H1420   1.084       .  S
S1417      H1422   1.407       .  S
S1419      H1423   1.407       .  S
C1425      C1426   1.401       .  A
C1425      C1430   1.399   1_455  A
C1425      H1435   1.084   1_556  S
C1426      C1431   1.479   1_556  S
C1426      C1427   1.413   1_455  A
C1427      C1428   1.400       .  A
C1427      S1432   1.805       .  S
C1428      C1429   1.404       .  A
C1428      H1433   1.084       .  S
C1429      C1430   1.416       .  A
C1430      S1434   1.804   1_655  S
C1431      C1436   1.408   1_554  A
C1431      C1440   1.401       .  A
S1432      H1448   1.405   1_556  S
S1434      H1445   1.407       .  S
C1436      C1437   1.401   1_556  A
C1436      S1441   1.808       .  S
C1437      C1438   1.407       .  A
C1437      H1442   1.082   1_554  S
C1438      C1439   1.417       .  A
C1439      C1440   1.400       .  A
C1439      S1443   1.801       .  S
C1440      H1444   1.084       .  S
S1441      H1446   1.407       .  S
S1443      H1447   1.408       .  S
C1449      C1450   1.400       .  A
C1449      C1454   1.397       .  A
C1449      H1459   1.084       .  S
C1450      C1455   1.474       .  S
C1450      C1451   1.410   1_455  A
C1451      C1452   1.398       .  A
C1451      S1456   1.804       .  S
C1452      C1453   1.406       .  A
C1452      H1457   1.084       .  S
C1453      C1454   1.416   1_655  A
C1454      S1458   1.803       .  S
C1455      C1460   1.407       .  A
C1455      C1464   1.399       .  A
S1456      H1472   1.406       .  S
S1458      H1469   1.406       .  S
C1460      C1461   1.399       .  A
C1460      S1465   1.808   1_455  S
C1461      C1462   1.407       .  A
C1461      H1466   1.082       .  S
C1462      C1463   1.419       .  A
C1463      C1464   1.398       .  A
C1463      S1467   1.801       .  S
C1464      H1468   1.084       .  S
S1465      H1470   1.407       .  S
S1467      H1471   1.408       .  S
C1473      C1474   1.401       .  A
C1473      C1478   1.397       .  A
C1473      H1483   1.084       .  S
C1474      C1479   1.478       .  S
C1474      C1475   1.413       .  A
C1475      C1476   1.398       .  A
C1475      S1480   1.804       .  S
C1476      C1477   1.404       .  A
C1476      H1481   1.084       .  S
C1477      C1478   1.414       .  A
C1478      S1482   1.802       .  S
C1479      C1484   1.410       .  A
C1479      C1488   1.401       .  A
S1480      H1496   1.406       .  S
S1482      H1493   1.407       .  S
C1484      C1485   1.402       .  A
C1484      S1489   1.808       .  S
C1485      C1486   1.405       .  A
C1485      H1490   1.083       .  S
C1486      C1487   1.415       .  A
C1487      C1488   1.397       .  A
C1487      S1491   1.803       .  S
C1488      H1492   1.084       .  S
S1489      H1494   1.407       .  S
S1491      H1495   1.407       .  S
C1497      C1498   1.402       .  A
C1497      C1502   1.401       .  A
C1497      H1507   1.084       .  S
C1498      C1503   1.481       .  S
C1498      C1499   1.410       .  A
C1499      C1500   1.399       .  A
C1499      S1504   1.804       .  S
C1500      C1501   1.407       .  A
C1500      H1505   1.084       .  S
C1501      C1502   1.417       .  A
C1502      S1506   1.799       .  S
C1503      C1508   1.408       .  A
C1503      C1512   1.401       .  A
S1504      H1520   1.406       .  S
S1506      H1517   1.407       .  S
C1508      C1509   1.404       .  A
C1508      S1513   1.806       .  S
C1509      C1510   1.406       .  A
C1509      H1514   1.083       .  S
C1510      C1511   1.416       .  A
C1511      C1512   1.399       .  A
C1511      S1515   1.803       .  S
C1512      H1516   1.084       .  S
S1513      H1518   1.407       .  S
S1515      H1519   1.407       .  S
C1521      C1522   1.400       .  A
C1521      C1526   1.398       .  A
C1521      H1531   1.084       .  S
C1522      C1527   1.474       .  S
C1522      C1523   1.411       .  A
C1523      C1524   1.397       .  A
C1523      S1528   1.805       .  S
C1524      C1525   1.404       .  A
C1524      H1529   1.084       .  S
C1525      C1526   1.417       .  A
C1526      S1530   1.803       .  S
C1527      C1532   1.408       .  A
C1527      C1536   1.399       .  A
S1528      H1544   1.405       .  S
S1530      H1541   1.408       .  S
C1532      C1533   1.402       .  A
C1532      S1537   1.807       .  S
C1533      C1534   1.406       .  A
C1533      H1538   1.083       .  S
C1534      C1535   1.416       .  A
C1535      C1536   1.397       .  A
C1535      S1539   1.802       .  S
C1536      H1540   1.084       .  S
S1537      H1542   1.407       .  S
S1539      H1543   1.408       .  S
C1545      C1546   1.401       .  A
C1545      C1550   1.398       .  A
C1545      H1555   1.084       .  S
C1546      C1551   1.482       .  S
C1546      C1547   1.413       .  A
C1547      C1548   1.402       .  A
C1547      S1552   1.804       .  S
C1548      C1549   1.405       .  A
C1548      H1553   1.084       .  S
C1549      C1550   1.416       .  A
C1550      S1554   1.804       .  S
C1551      C1556   1.409       .  A
C1551      C1560   1.400       .  A
S1552      H1568   1.405       .  S
S1554      H1565   1.408       .  S
C1556      C1557   1.405       .  A
C1556      S1561   1.807       .  S
C1557      C1558   1.407       .  A
C1557      H1562   1.082       .  S
C1558      C1559   1.419       .  A
C1559      C1560   1.400       .  A
C1559      S1563   1.801       .  S
C1560      H1564   1.084       .  S
S1561      H1566   1.407       .  S
S1563      H1567   1.406       .  S
C1569      C1570   1.401       .  A
C1569      C1574   1.400       .  A
C1569      H1579   1.084       .  S
C1570      C1575   1.479       .  S
C1570      C1571   1.412       .  A
C1571      C1572   1.399       .  A
C1571      S1576   1.806       .  S
C1572      C1573   1.405       .  A
C1572      H1577   1.084       .  S
C1573      C1574   1.415       .  A
C1574      S1578   1.802       .  S
C1575      C1580   1.409       .  A
C1575      C1584   1.400       .  A
S1576      H1592   1.405       .  S
S1578      H1589   1.408       .  S
C1580      C1581   1.403       .  A
C1580      S1585   1.806       .  S
C1581      C1582   1.405       .  A
C1581      H1586   1.083       .  S
C1582      C1583   1.417       .  A
C1583      C1584   1.398       .  A
C1583      S1587   1.804       .  S
C1584      H1588   1.084       .  S
S1585      H1590   1.406       .  S
S1587      H1591   1.407       .  S
C1593      C1594   1.400       .  A
C1593      C1598   1.397       .  A
C1593      H1603   1.084       .  S
C1594      C1599   1.473       .  S
C1594      C1595   1.409       .  A
C1595      C1596   1.398       .  A
C1595      S1600   1.804       .  S
C1596      C1597   1.408       .  A
C1596      H1601   1.084       .  S
C1597      C1598   1.417       .  A
C1598      S1602   1.801       .  S
C1599      C1604   1.407       .  A
C1599      C1608   1.400       .  A
S1600      H1616   1.404       .  S
S1602      H1613   1.408       .  S
C1604      C1605   1.400       .  A
C1604      S1609   1.807       .  S
C1605      C1606   1.406       .  A
C1605      H1610   1.083       .  S
C1606      C1607   1.416       .  A
C1607      C1608   1.399       .  A
C1607      S1611   1.802       .  S
C1608      H1612   1.084       .  S
S1609      H1614   1.407       .  S
S1611      H1615   1.407       .  S
C1617      C1618   1.399       .  A
C1617      C1622   1.397       .  A
C1617      H1627   1.085       .  S
C1618      C1623   1.475       .  S
C1618      C1619   1.410       .  A
C1619      C1620   1.398       .  A
C1619      S1624   1.804       .  S
C1620      C1621   1.405       .  A
C1620      H1625   1.084       .  S
C1621      C1622   1.418       .  A
C1622      S1626   1.803       .  S
C1623      C1628   1.407       .  A
C1623      C1632   1.400       .  A
S1624      H1640   1.405       .  S
S1626      H1637   1.408       .  S
C1628      C1629   1.401       .  A
C1628      S1633   1.807       .  S
C1629      C1630   1.406       .  A
C1629      H1634   1.083       .  S
C1630      C1631   1.416       .  A
C1631      C1632   1.398       .  A
C1631      S1635   1.803       .  S
C1632      H1636   1.084       .  S
S1633      H1638   1.407       .  S
S1635      H1639   1.408       .  S
C1641      C1642   1.400       .  A
C1641      C1646   1.397       .  A
C1641      H1651   1.084       .  S
C1642      C1647   1.476   1_655  S
C1642      C1643   1.411       .  A
C1643      C1644   1.399       .  A
C1643      S1648   1.804   1_655  S
C1644      C1645   1.405       .  A
C1644      H1649   1.084       .  S
C1645      C1646   1.417       .  A
C1646      S1650   1.803       .  S
C1647      C1652   1.408       .  A
C1647      C1656   1.400       .  A
S1648      H1664   1.405       .  S
S1650      H1661   1.408       .  S
C1652      C1653   1.404       .  A
C1652      S1657   1.806       .  S
C1653      C1654   1.407       .  A
C1653      H1658   1.083       .  S
C1654      C1655   1.416       .  A
C1655      C1656   1.397       .  A
C1655      S1659   1.802       .  S
C1656      H1660   1.084       .  S
S1657      H1662   1.407       .  S
S1659      H1663   1.408       .  S
C1665      C1666   1.400       .  A
C1665      C1670   1.398       .  A
C1665      H1675   1.084       .  S
C1666      C1671   1.480       .  S
C1666      C1667   1.411       .  A
C1667      C1668   1.402       .  A
C1667      S1672   1.805       .  S
C1668      C1669   1.407       .  A
C1668      H1673   1.084       .  S
C1669      C1670   1.418       .  A
C1670      S1674   1.802       .  S
C1671      C1676   1.408       .  A
C1671      C1680   1.402       .  A
S1672      H1688   1.405       .  S
S1674      H1685   1.408       .  S
C1676      C1677   1.402       .  A
C1676      S1681   1.808       .  S
C1677      C1678   1.407       .  A
C1677      H1682   1.083       .  S
C1678      C1679   1.415       .  A
C1679      C1680   1.401       .  A
C1679      S1683   1.802       .  S
C1680      H1684   1.084       .  S
S1681      H1686   1.407       .  S
S1683      H1687   1.407       .  S
C1689      C1690   1.401       .  A
C1689      C1694   1.400       .  A
C1689      H1699   1.084       .  S
C1690      C1695   1.478       .  S
C1690      C1691   1.410       .  A
C1691      C1692   1.398       .  A
C1691      S1696   1.805       .  S
C1692      C1693   1.407       .  A
C1692      H1697   1.084       .  S
C1693      C1694   1.418       .  A
C1694      S1698   1.801       .  S
C1695      C1700   1.407       .  A
C1695      C1704   1.400       .  A
S1696      H1712   1.405       .  S
S1698      H1709   1.408       .  S
C1700      C1701   1.403       .  A
C1700      S1705   1.806       .  S
C1701      C1702   1.407       .  A
C1701      H1706   1.083       .  S
C1702      C1703   1.417       .  A
C1703      C1704   1.398       .  A
C1703      S1707   1.802       .  S
C1704      H1708   1.084       .  S
S1705      H1710   1.407       .  S
S1707      H1711   1.407       .  S
C1713      C1714   1.402       .  A
C1713      C1718   1.399       .  A
C1713      H1723   1.084       .  S
C1714      C1719   1.484       .  S
C1714      C1715   1.413       .  A
C1715      C1716   1.399       .  A
C1715      S1720   1.804       .  S
C1716      C1717   1.404       .  A
C1716      H1721   1.084       .  S
C1717      C1718   1.416       .  A
C1718      S1722   1.803       .  S
C1719      C1724   1.411       .  A
C1719      C1728   1.403       .  A
S1720      H1736   1.406       .  S
S1722      H1733   1.407       .  S
C1724      C1725   1.403       .  A
C1724      S1729   1.807       .  S
C1725      C1726   1.404       .  A
C1725      H1730   1.083       .  S
C1726      C1727   1.414       .  A
C1727      C1728   1.399       .  A
C1727      S1731   1.804       .  S
C1728      H1732   1.084       .  S
S1729      H1734   1.407       .  S
S1731      H1735   1.407       .  S
C1737      C1738   1.402       .  A
C1737      C1742   1.398       .  A
C1737      H1747   1.084       .  S
C1738      C1743   1.482   1_565  S
C1738      C1739   1.412       .  A
C1739      C1740   1.401       .  A
C1739      S1744   1.804       .  S
C1740      C1741   1.406       .  A
C1740      H1745   1.084       .  S
C1741      C1742   1.415       .  A
C1742      S1746   1.803       .  S
C1743      C1748   1.409       .  A
C1743      C1752   1.403       .  A
S1744      H1760   1.406   1_565  S
S1746      H1757   1.408       .  S
C1748      C1749   1.400       .  A
C1748      S1753   1.807       .  S
C1749      C1750   1.404       .  A
C1749      H1754   1.083       .  S
C1750      C1751   1.415       .  A
C1751      C1752   1.401       .  A
C1751      S1755   1.801       .  S
C1752      H1756   1.084   1_545  S
S1753      H1758   1.407       .  S
S1755      H1759   1.406       .  S
C1761      C1762   1.401       .  A
C1761      C1766   1.405       .  A
C1761      H1771   1.083       .  S
C1762      C1767   1.478       .  S
C1762      C1763   1.410       .  A
C1763      C1764   1.397       .  A
C1763      S1768   1.806       .  S
C1764      C1765   1.406       .  A
C1764      H1769   1.084       .  S
C1765      C1766   1.417       .  A
C1766      S1770   1.808       .  S
C1767      C1772   1.409       .  A
C1767      C1776   1.400       .  A
S1768      H1784   1.405       .  S
S1770      H1781   1.407       .  S
C1772      C1773   1.403       .  A
C1772      S1777   1.806       .  S
C1773      C1774   1.405       .  A
C1773      H1778   1.083       .  S
C1774      C1775   1.416       .  A
C1775      C1776   1.397       .  A
C1775      S1779   1.804       .  S
C1776      H1780   1.084       .  S
S1777      H1782   1.407       .  S
S1779      H1783   1.408       .  S
C1785      C1786   1.400       .  A
C1785      C1790   1.398       .  A
C1785      H1795   1.084       .  S
C1786      C1791   1.481       .  S
C1786      C1787   1.411       .  A
C1787      C1788   1.402       .  A
C1787      S1792   1.803       .  S
C1788      C1789   1.407       .  A
C1788      H1793   1.084       .  S
C1789      C1790   1.419       .  A
C1790      S1794   1.802       .  S
C1791      C1796   1.408       .  A
C1791      C1800   1.400       .  A
S1792      H1808   1.406       .  S
S1794      H1805   1.407       .  S
C1796      C1797   1.405       .  A
C1796      S1801   1.806       .  S
C1797      C1798   1.407       .  A
C1797      H1802   1.082       .  S
C1798      C1799   1.418       .  A
C1799      C1800   1.398       .  A
C1799      S1803   1.802       .  S
C1800      H1804   1.084       .  S
S1801      H1806   1.407       .  S
S1803      H1807   1.406       .  S
C1809      C1810   1.401       .  A
C1809      C1814   1.400       .  A
C1809      H1819   1.084       .  S
C1810      C1815   1.481   1_565  S
C1810      C1811   1.411       .  A
C1811      C1812   1.398       .  A
C1811      S1816   1.805       .  S
C1812      C1813   1.407       .  A
C1812      H1817   1.084       .  S
C1813      C1814   1.419       .  A
C1814      S1818   1.801       .  S
C1815      C1820   1.410       .  A
C1815      C1824   1.402       .  A
S1816      H1832   1.405       .  S
S1818      H1829   1.408       .  S
C1820      C1821   1.403       .  A
C1820      S1825   1.807       .  S
C1821      C1822   1.405       .  A
C1821      H1826   1.083       .  S
C1822      C1823   1.415       .  A
C1823      C1824   1.399       .  A
C1823      S1827   1.802       .  S
C1824      H1828   1.084   1_545  S
S1825      H1830   1.407       .  S
S1827      H1831   1.406       .  S
C1833      C1834   1.402       .  A
C1833      C1838   1.403       .  A
C1833      H1843   1.084       .  S
C1834      C1839   1.483       .  S
C1834      C1835   1.412       .  A
C1835      C1836   1.400       .  A
C1835      S1840   1.805       .  S
C1836      C1837   1.407       .  A
C1836      H1841   1.084       .  S
C1837      C1838   1.417       .  A
C1838      S1842   1.801       .  S
C1839      C1844   1.409       .  A
C1839      C1848   1.401       .  A
S1840      H1856   1.405       .  S
S1842      H1853   1.408       .  S
C1844      C1845   1.404       .  A
C1844      S1849   1.806       .  S
C1845      C1846   1.406       .  A
C1845      H1850   1.083       .  S
C1846      C1847   1.417       .  A
C1847      C1848   1.401       .  A
C1847      S1851   1.802       .  S
C1848      H1852   1.084       .  S
S1849      H1854   1.407       .  S
S1851      H1855   1.407       .  S
C1857      C1858   1.403       .  A
C1857      C1862   1.401       .  A
C1857      H1867   1.084       .  S
C1858      C1863   1.483       .  S
C1858      C1859   1.415       .  A
C1859      C1860   1.399       .  A
C1859      S1864   1.805       .  S
C1860      C1861   1.403       .  A
C1860      H1865   1.084       .  S
C1861      C1862   1.416       .  A
C1862      S1866   1.803       .  S
C1863      C1868   1.410       .  A
C1863      C1872   1.402       .  A
S1864      H1880   1.406       .  S
S1866      H1877   1.407       .  S
C1868      C1869   1.403       .  A
C1868      S1873   1.807       .  S
C1869      C1870   1.406       .  A
C1869      H1874   1.083       .  S
C1870      C1871   1.415       .  A
C1871      C1872   1.399       .  A
C1871      S1875   1.802       .  S
C1872      H1876   1.084       .  S
S1873      H1878   1.407       .  S
S1875      H1879   1.407       .  S
C1881      C1882   1.400       .  A
C1881      C1886   1.398       .  A
C1881      H1891   1.084       .  S
C1882      C1887   1.478       .  S
C1882      C1883   1.413       .  A
C1883      C1884   1.399       .  A
C1883      S1888   1.806       .  S
C1884      C1885   1.406       .  A
C1884      H1889   1.084       .  S
C1885      C1886   1.417       .  A
C1886      S1890   1.802       .  S
C1887      C1892   1.408       .  A
C1887      C1896   1.400       .  A
S1888      H1904   1.405       .  S
S1890      H1901   1.408       .  S
C1892      C1893   1.402       .  A
C1892      S1897   1.807       .  S
C1893      C1894   1.408       .  A
C1893      H1898   1.082       .  S
C1894      C1895   1.419       .  A
C1895      C1896   1.397       .  A
C1895      S1899   1.800       .  S
C1896      H1900   1.084       .  S
S1897      H1902   1.407       .  S
S1899      H1903   1.408       .  S
C1905      C1906   1.401       .  A
C1905      C1910   1.400       .  A
C1905      H1915   1.085       .  S
C1906      C1911   1.481       .  S
C1906      C1907   1.412       .  A
C1907      C1908   1.401       .  A
C1907      S1912   1.804       .  S
C1908      C1909   1.406       .  A
C1908      H1913   1.084       .  S
C1909      C1910   1.418       .  A
C1910      S1914   1.803       .  S
C1911      C1916   1.410       .  A
C1911      C1920   1.399       .  A
S1912      H1928   1.405       .  S
S1914      H1925   1.408       .  S
C1916      C1917   1.407       .  A
C1916      S1921   1.806       .  S
C1917      C1918   1.406       .  A
C1917      H1922   1.083       .  S
C1918      C1919   1.416       .  A
C1919      C1920   1.398       .  A
C1919      S1923   1.803       .  S
C1920      H1924   1.084       .  S
S1921      H1926   1.407       .  S
S1923      H1927   1.407       .  S
C1929      C1930   1.400   1_655  A
C1929      C1934   1.398       .  A
C1929      H1939   1.084       .  S
C1930      C1935   1.478       .  S
C1930      C1931   1.411       .  A
C1931      C1932   1.401   1_455  A
C1931      S1936   1.806       .  S
C1932      C1933   1.408       .  A
C1932      H1937   1.084       .  S
C1933      C1934   1.418       .  A
C1934      S1938   1.801       .  S
C1935      C1940   1.408       .  A
C1935      C1944   1.400       .  A
S1936      H1952   1.404       .  S
S1938      H1949   1.407       .  S
C1940      C1941   1.404       .  A
C1940      S1945   1.806       .  S
C1941      C1942   1.407       .  A
C1941      H1946   1.082       .  S
C1942      C1943   1.417       .  A
C1943      C1944   1.398       .  A
C1943      S1947   1.803       .  S
C1944      H1948   1.084       .  S
S1945      H1950   1.407       .  S
S1947      H1951   1.408       .  S
