geometry optimzed in LAMMPS
_audit_creation_date              2020-12-01 
_audit_creation_method            'lammps2cif' 
_symmetry_space_group_name_H-M    'P1' 
_symmetry_Int_Tables_number       1 
_symmetry_cell_setting            triclinic 
loop_ 
_symmetry_equiv_pos_as_xyz 
  x,y,z 
_cell_length_a                    39.9031606 
_cell_length_b                    39.92046842405703 
_cell_length_c                    39.8694614162169 
_cell_angle_alpha                 89.84643912743027 
_cell_angle_beta                  90.20156576775508 
_cell_angle_gamma                 89.90650955718037 
loop_ 
_atom_site_label 
_atom_site_type_symbol 
_atom_site_fract_x 
_atom_site_fract_y 
_atom_site_fract_z 
_atom_site_charge 
O1          O  0.62331459  0.28286793  0.82542922    -0.74300
O2          O  0.63576937  0.32171743  0.91198709    -0.74400
O3          O  0.67229890  0.28122124  0.87220386    -0.74400
O4          O  0.58651417  0.32325839  0.86504485    -0.74500
O5          O  0.56308301  0.27835262  0.88831329    -0.74400
O6          O  0.64903633  0.23648144  0.89590481    -0.74400
O7          O  0.61207187  0.27708748  0.93563145    -0.74300
O8          O  0.60013953  0.23782788  0.84870978    -0.74400
Ni9        Ni  0.63027083  0.30387418  0.86788162     1.25400
Ni10       Ni  0.60518090  0.25587878  0.89303038     1.25400
C11         C  0.61004187  0.25380489  0.82265700     0.87900
C12         C  0.62634012  0.30571305  0.93817856     0.87800
C13         C  0.67496534  0.25185758  0.88503697     0.87800
C14         C  0.56045694  0.30745772  0.87490387     0.88000
O15         O  0.25538406  0.63681821  0.89644288    -0.74300
O16         O  0.29425000  0.54951577  0.89122247    -0.74400
O17         O  0.29276148  0.59859489  0.93834953    -0.74400
O18         O  0.25691089  0.58848374  0.84955536    -0.74500
O19         O  0.30364418  0.61028146  0.82838854    -0.74400
O20         O  0.33909473  0.62074823  0.91680164    -0.74400
O21         O  0.34079191  0.57166553  0.87013255    -0.74300
O22         O  0.30180617  0.65890425  0.87490672    -0.74400
Ni23       Ni  0.27322402  0.59246405  0.89473541     1.25400
Ni24       Ni  0.32304407  0.61608973  0.87188878     1.25400
C25         C  0.27184431  0.66219138  0.88585744     0.87900
C26         C  0.32372729  0.54605236  0.87907033     0.87800
C27         C  0.32156190  0.61228654  0.94224782     0.87800
C28         C  0.27420021  0.59825747  0.82430306     0.88000
O29         O  0.33394667  0.37013632  0.77501162    -0.74300
O30         O  0.42149685  0.36054678  0.81287837    -0.74400
O31         O  0.38189402  0.32242869  0.77332467    -0.74400
O32         O  0.37330399  0.40828154  0.81457352    -0.74500
O33         O  0.35097721  0.38473581  0.85991612    -0.74400
O34         O  0.36052424  0.29851947  0.81907839    -0.74400
O35         O  0.39959778  0.33717813  0.85850780    -0.74300
O36         O  0.31197242  0.34607162  0.82034282    -0.74400
Ni37       Ni  0.37848453  0.36625004  0.79239770     1.25400
Ni38       Ni  0.35500926  0.34080062  0.84112244     1.25400
C39         C  0.30847497  0.35957558  0.79134989     0.87900
C40         C  0.42515285  0.34669313  0.84168462     0.87800
C41         C  0.37247827  0.29627946  0.78936814     0.87800
C42         C  0.36012092  0.41088021  0.84371863     0.88000
O43         O  0.67255902  0.61356026  0.19723676    -0.74300
O44         O  0.58403018  0.62373618  0.16062423    -0.74400
O45         O  0.62515853  0.66190054  0.19834155    -0.74400
O46         O  0.63196870  0.57503053  0.15896684    -0.74500
O47         O  0.61092759  0.55235923  0.20535604    -0.74400
O48         O  0.60342983  0.63949244  0.24452822    -0.74400
O49         O  0.56289137  0.60073206  0.20684433    -0.74300
O50         O  0.65093860  0.59131985  0.24358849    -0.74400
Ni51       Ni  0.62914013  0.61928032  0.17707086     1.25400
Ni52       Ni  0.60622704  0.59508977  0.22663769     1.25400
C53         C  0.67630876  0.60133039  0.22681248     0.87900
C54         C  0.55872452  0.61455738  0.17812998     0.87800
C55         C  0.61339221  0.66515161  0.22800001     0.87800
C56         C  0.62332217  0.54917685  0.17591607     0.88000
O57         O  0.73319801  0.32550247  0.11405079    -0.74300
O58         O  0.69524882  0.41370625  0.12186675    -0.74400
O59         O  0.73382876  0.37367909  0.16143301    -0.74400
O60         O  0.69546828  0.36508524  0.07406444    -0.74500
O61         O  0.64940054  0.34282912  0.09588389    -0.74400
O62         O  0.68740327  0.35257341  0.18401788    -0.74400
O63         O  0.64896573  0.39154081  0.14355227    -0.74300
O64         O  0.68702308  0.30430313  0.13683653    -0.74400
Ni65       Ni  0.71600433  0.37042013  0.11702264     1.25400
Ni66       Ni  0.66649823  0.34717261  0.14083057     1.25400
C67         C  0.71613828  0.30023267  0.12420066     0.87900
C68         C  0.66591308  0.41717552  0.13450530     0.87800
C69         C  0.71740008  0.36371666  0.18707936     0.87800
C70         C  0.66676543  0.35137531  0.07021834     0.88000
O71         O  0.37679770  0.72046591  0.16690560    -0.74300
O72         O  0.36989153  0.67993137  0.08041044    -0.74400
O73         O  0.32869579  0.71667096  0.11888429    -0.74400
O74         O  0.41827138  0.68364408  0.12840354    -0.74500
O75         O  0.39882921  0.63681339  0.15146009    -0.74400
O76         O  0.30910351  0.67009484  0.14240136    -0.74400
O77         O  0.35012717  0.63326836  0.10362329    -0.74300
O78         O  0.35751095  0.67356818  0.19018881    -0.74400
Ni79       Ni  0.37415983  0.70179586  0.12279804     1.25400
Ni80       Ni  0.35324998  0.65174615  0.14774565     1.25400
C81         C  0.36857048  0.70353473  0.19293019     0.87900
C82         C  0.35783627  0.65033075  0.07755718     0.87800
C83         C  0.30398675  0.69877093  0.12879443     0.87800
C84         C  0.42352845  0.65497603  0.14193044     0.88000
O85         O  0.65109030  0.21368845  0.61523760    -0.74300
O86         O  0.56345931  0.17657586  0.62396364    -0.74400
O87         O  0.60314763  0.21434856  0.66302382    -0.74400
O88         O  0.61144457  0.17576981  0.57599644    -0.74500
O89         O  0.63324868  0.12950599  0.59844087    -0.74400
O90         O  0.62498981  0.16820930  0.68581989    -0.74400
O91         O  0.58505084  0.13036128  0.64665343    -0.74300
O92         O  0.67314572  0.16742770  0.63765577    -0.74400
Ni93       Ni  0.60648877  0.19665858  0.61870437     1.25400
Ni94       Ni  0.62987093  0.14716600  0.64292571     1.25400
C95         C  0.67664344  0.19667451  0.62480080     0.87900
C96         C  0.55955657  0.14777808  0.63753772     0.87800
C97         C  0.61259495  0.19769165  0.68885246     0.87800
C98         C  0.62450982  0.14664236  0.57265457     0.88000
O99         O  0.72988433  0.09107672  0.34667750    -0.74300
O100        O  0.69163087  0.10002896  0.43398226    -0.74400
O101        O  0.69092333  0.05209521  0.38587057    -0.74400
O102        O  0.73078437  0.13886588  0.39454004    -0.74500
O103        O  0.68502810  0.16208839  0.37229324    -0.74400
O104        O  0.64543958  0.07540596  0.36317959    -0.74400
O105        O  0.64598856  0.12304910  0.41138228    -0.74300
O106        O  0.68432391  0.11449911  0.32428899    -0.74400
Ni107      Ni  0.71239388  0.09464793  0.39114815     1.25400
Ni108      Ni  0.66354148  0.11954642  0.36705247     1.25400
C109        C  0.71353449  0.10159709  0.32103292     0.87900
C110        C  0.66265940  0.11353178  0.43717374     0.87800
C111        C  0.66193654  0.04935687  0.37222158     0.87800
C112        C  0.71455690  0.16484432  0.38467952     0.88000
O113        O  0.38574788  0.13750901  0.74729754    -0.74300
O114        O  0.37313039  0.04979919  0.71002186    -0.74400
O115        O  0.42314896  0.09609288  0.70902695    -0.74400
O116        O  0.33640303  0.09154836  0.74882870    -0.74500
O117        O  0.31386649  0.11420922  0.70279737    -0.74400
O118        O  0.40084368  0.11882514  0.66305439    -0.74400
O119        O  0.35053478  0.07276370  0.66421211    -0.74300
O120        O  0.36339611  0.16013315  0.70136162    -0.74400
Ni121      Ni  0.38047906  0.09283758  0.73034896     1.25400
Ni122      Ni  0.35646642  0.11722223  0.68114412     1.25400
C123        C  0.37601811  0.16336847  0.73077558     0.87900
C124        C  0.35899749  0.04682165  0.68122915     0.87800
C125        C  0.42653445  0.10904137  0.67985414     0.87800
C126        C  0.31088236  0.10228626  0.73249561     0.88000
O127        O  0.25196208  0.86796517  0.66777262    -0.74300
O128        O  0.28802319  0.86088828  0.57933361    -0.74400
O129        O  0.25222554  0.81988621  0.62009118    -0.74400
O130        O  0.28739702  0.90901686  0.62760761    -0.74500
O131        O  0.33478503  0.88871474  0.64896876    -0.74400
O132        O  0.29989685  0.79967878  0.64090688    -0.74400
O133        O  0.33563775  0.84084944  0.60059635    -0.74300
O134        O  0.29942966  0.84732564  0.68882320    -0.74400
Ni135      Ni  0.26825858  0.86519163  0.62283316     1.25400
Ni136      Ni  0.31914789  0.84342758  0.64546793     1.25400
C137        C  0.26984832  0.85895214  0.69298510     0.87900
C138        C  0.31773201  0.84941724  0.57526424     0.87800
C139        C  0.27008431  0.79493891  0.62985709     0.87800
C140        C  0.31647159  0.91378926  0.64048921     0.88000
O141        O  0.62490864  0.80188377  0.31391258    -0.74300
O142        O  0.63272036  0.88884602  0.35283124    -0.74400
O143        O  0.58502471  0.84039829  0.35229218    -0.74400
O144        O  0.67221297  0.85017152  0.31418418    -0.74500
O145        O  0.64938899  0.87226975  0.26799521    -0.74400
O146        O  0.56227860  0.86293218  0.30638023    -0.74400
O147        O  0.61016391  0.91126923  0.30687735    -0.74300
O148        O  0.60217490  0.82423263  0.26783163    -0.74400
Ni149      Ni  0.62945537  0.84457542  0.33499644     1.25400
Ni150      Ni  0.60510933  0.86857459  0.28570885     1.25400
C151        C  0.61273847  0.79872692  0.28433079     0.87900
C152        C  0.62356717  0.91460632  0.33596753     0.87800
C153        C  0.55918045  0.84915719  0.33524786     0.87800
C154        C  0.67510534  0.86255828  0.28466950     0.88000
O155        O  0.31112369  0.79284453  0.37689737    -0.74300
O156        O  0.39833328  0.83181427  0.36727241    -0.74400
O157        O  0.35807989  0.79415157  0.32829635    -0.74400
O158        O  0.35087013  0.83098342  0.41629552    -0.74500
O159        O  0.37364365  0.78468810  0.43776969    -0.74400
O160        O  0.38123916  0.74796793  0.34957299    -0.74400
O161        O  0.42095586  0.78559373  0.38890795    -0.74300
O162        O  0.33432040  0.74659553  0.39806613    -0.74400
Ni163      Ni  0.35382717  0.81418122  0.37152795     1.25400
Ni164      Ni  0.37841561  0.76466356  0.39443840     1.25400
C165        C  0.30837616  0.76306111  0.38867574     0.87900
C166        C  0.42422328  0.81453642  0.37539960     0.87800
C167        C  0.37081527  0.76500131  0.32430116     0.87800
C168        C  0.36028003  0.81361307  0.44169630     0.88000
O169        O  0.16941990  0.78671850  0.14070287    -0.74300
O170        O  0.08424628  0.82946530  0.14958446    -0.74400
O171        O  0.12236754  0.78967102  0.18927916    -0.74400
O172        O  0.13159794  0.82622594  0.10120770    -0.74500
O173        O  0.10727131  0.78089035  0.07993662    -0.74400
O174        O  0.09752497  0.74449261  0.16805485    -0.74400
O175        O  0.05971171  0.78429576  0.12789449    -0.74300
O176        O  0.14496401  0.74112200  0.11978079    -0.74400
Ni177      Ni  0.12772263  0.80963721  0.14598112     1.25400
Ni178      Ni  0.10138952  0.76111513  0.12316820     1.25400
C179        C  0.17137290  0.75719600  0.12835944     0.87900
C180        C  0.05786074  0.81386883  0.14013822     0.87800
C181        C  0.10862654  0.76097915  0.19327592     0.87800
C182        C  0.12174715  0.80923923  0.07587427     0.88000
O183        O  0.81121483  0.84900239  0.19467052    -0.74300
O184        O  0.90010348  0.84377754  0.15938450    -0.74400
O185        O  0.86024341  0.80222109  0.19512330    -0.74400
O186        O  0.85074606  0.89015477  0.15868155    -0.74500
O187        O  0.87104050  0.91169470  0.20601970    -0.74400
O188        O  0.88027801  0.82345505  0.24267308    -0.74400
O189        O  0.92015302  0.86500926  0.20689613    -0.74300
O190        O  0.83149489  0.87057636  0.24191311    -0.74400
Ni191      Ni  0.85491350  0.84551493  0.17526413     1.25400
Ni192      Ni  0.87651725  0.86845438  0.22604293     1.25400
C193        C  0.80658144  0.86087892  0.22411161     0.87900
C194        C  0.92492531  0.85344995  0.17740174     0.87800
C195        C  0.87163859  0.79814925  0.22489976     0.87800
C196        C  0.85888575  0.91550514  0.17647902     0.88000
O197        O  0.22852099  0.86909061  0.85103586    -0.74300
O198        O  0.19127922  0.85732389  0.93861984    -0.74400
O199        O  0.22917516  0.81968014  0.89709662    -0.74400
O200        O  0.19093849  0.90712771  0.89236341    -0.74500
O201        O  0.14448757  0.88585174  0.86997365    -0.74400
O202        O  0.18298655  0.79824320  0.87415666    -0.74400
O203        O  0.14515933  0.83566144  0.91565022    -0.74300
O204        O  0.18191220  0.84801181  0.82861794    -0.74400
Ni205      Ni  0.21159355  0.86412243  0.89568417     1.25400
Ni206      Ni  0.16193437  0.84124027  0.87137535     1.25400
C207        C  0.21130635  0.86026366  0.82534227     0.87900
C208        C  0.16232008  0.84380798  0.94148952     0.87800
C209        C  0.21276582  0.79462101  0.88574725     0.87800
C210        C  0.16169022  0.91111180  0.87965063     0.88000
O211        O  0.15591804  0.09092749  0.77889404    -0.74300
O212        O  0.06735644  0.09727357  0.81329059    -0.74400
O213        O  0.10726280  0.13758013  0.77682193    -0.74400
O214        O  0.11617278  0.05055158  0.81556876    -0.74500
O215        O  0.13612724  0.07299244  0.86261508    -0.74400
O216        O  0.12705604  0.16027152  0.82382369    -0.74400
O217        O  0.08674655  0.11996549  0.86036789    -0.74300
O218        O  0.17609435  0.11361029  0.82567042    -0.74400
Ni219      Ni  0.11094871  0.09322565  0.79457022     1.25400
Ni220      Ni  0.13220134  0.11745633  0.84489132     1.25400
C221        C  0.18070357  0.10166924  0.79622196     0.87900
C222        C  0.06212288  0.11023116  0.84213080     0.87800
C223        C  0.11583263  0.16336272  0.79384661     0.87800
C224        C  0.12807470  0.04727609  0.84526753     0.88000
O225        O  0.79949090  0.11424376  0.18467359    -0.74300
O226        O  0.83963858  0.12140131  0.09840440    -0.74400
O227        O  0.80243266  0.16234596  0.13691158    -0.74400
O228        O  0.83664975  0.07347707  0.14600500    -0.74500
O229        O  0.79003654  0.05303145  0.12313893    -0.74400
O230        O  0.75604818  0.14206081  0.11324175    -0.74400
O231        O  0.79342814  0.10035503  0.07488837    -0.74300
O232        O  0.75281094  0.09433806  0.16136375    -0.74400
Ni233      Ni  0.82121571  0.11856310  0.14230160     1.25400
Ni234      Ni  0.77141066  0.09673404  0.11726048     1.25400
C235        C  0.76951588  0.10316653  0.18734630     0.87900
C236        C  0.82314931  0.11212125  0.07249092     0.87800
C237        C  0.77354003  0.16690059  0.12360554     0.87800
C238        C  0.81890702  0.04852341  0.13648802     0.88000
O239        O  0.81114636  0.16264735  0.87414063    -0.74300
O240        O  0.89950708  0.12627062  0.86417810    -0.74400
O241        O  0.85331867  0.12743100  0.91431850    -0.74400
O242        O  0.85702311  0.16170579  0.82432109    -0.74500
O243        O  0.87941446  0.20887685  0.84377835    -0.74400
O244        O  0.87500852  0.17523102  0.93276368    -0.74400
O245        O  0.92129601  0.17373250  0.88392758    -0.74300
O246        O  0.83345034  0.21025532  0.89275099    -0.74400
Ni247      Ni  0.85453572  0.14266978  0.86858405     1.25400
Ni248      Ni  0.87811021  0.19359859  0.88899422     1.25400
C249        C  0.80784614  0.19284689  0.88445711     0.87900
C250        C  0.92492664  0.14422863  0.87205421     0.87800
C251        C  0.86282178  0.14625043  0.93857962     0.87800
C252        C  0.86842114  0.19130720  0.81930871     0.88000
O253        O  0.23196056  0.58934129  0.66632353    -0.74300
O254        O  0.19581032  0.59444962  0.57731459    -0.74400
O255        O  0.23094589  0.63650666  0.61776859    -0.74400
O256        O  0.19693280  0.54719047  0.62627832    -0.74500
O257        O  0.14947819  0.56755028  0.64712732    -0.74400
O258        O  0.18267114  0.65693559  0.63707803    -0.74400
O259        O  0.14784079  0.61405984  0.59778591    -0.74300
O260        O  0.18445636  0.61028131  0.68651228    -0.74400
Ni261      Ni  0.21558203  0.59112774  0.62111191     1.25400
Ni262      Ni  0.16440024  0.61288423  0.64281339     1.25400
C263        C  0.21425386  0.59917248  0.69120344     0.87900
C264        C  0.16585574  0.60520789  0.57278876     0.87800
C265        C  0.21255987  0.66136816  0.62637658     0.87800
C266        C  0.16764203  0.54254025  0.63847368     0.88000
O267        O  0.15188693  0.36781406  0.74477905    -0.74300
O268        O  0.06448153  0.35746838  0.70654101    -0.74400
O269        O  0.10472392  0.31934082  0.74565442    -0.74400
O270        O  0.11219562  0.40615813  0.70549879    -0.74500
O271        O  0.13476462  0.38340666  0.65990312    -0.74400
O272        O  0.12722016  0.29670858  0.69998689    -0.74400
O273        O  0.08691565  0.33474268  0.66094723    -0.74300
O274        O  0.17445029  0.34509233  0.69916571    -0.74400
Ni275      Ni  0.10744239  0.36357943  0.72716583     1.25400
Ni276      Ni  0.13155566  0.33922954  0.67831763     1.25400
C277        C  0.17764137  0.35813252  0.72832881     0.87900
C278        C  0.06109048  0.34343893  0.67785400     0.87800
C279        C  0.11488727  0.29361051  0.72942521     0.87800
C280        C  0.12557557  0.40924587  0.67648336     0.88000
O281        O  0.15356932  0.71314421  0.39849506    -0.74300
O282        O  0.06628756  0.67601662  0.38844130    -0.74400
O283        O  0.11414188  0.67358008  0.43663634    -0.74400
O284        O  0.10570124  0.71511470  0.35051837    -0.74500
O285        O  0.12746308  0.66952405  0.32692156    -0.74400
O286        O  0.13616034  0.62808715  0.41315546    -0.74400
O287        O  0.08773379  0.63037245  0.36487851    -0.74300
O288        O  0.17576145  0.66782568  0.37483623    -0.74400
Ni289      Ni  0.10916897  0.69598823  0.39445215     1.25400
Ni290      Ni  0.13259988  0.64726469  0.36916661     1.25400
C291        C  0.17912512  0.69692937  0.38796854     0.87900
C292        C  0.06229138  0.64757823  0.37432037     0.87800
C293        C  0.12670274  0.64413256  0.43925173     0.87800
C294        C  0.11471682  0.69889040  0.32438313     0.88000
O295        O  0.83399845  0.24054261  0.61271723    -0.74300
O296        O  0.92212531  0.27640174  0.62680272    -0.74400
O297        O  0.87924191  0.23837519  0.66310248    -0.74400
O298        O  0.87669777  0.27832918  0.57573080    -0.74500
O299        O  0.85451614  0.32455800  0.59737404    -0.74400
O300        O  0.85728049  0.28481872  0.68477025    -0.74400
O301        O  0.89984919  0.32268227  0.64832755    -0.74300
O302        O  0.81216683  0.28690840  0.63446994    -0.74400
Ni303      Ni  0.87889593  0.25682131  0.61873221     1.25400
Ni304      Ni  0.85522978  0.30642347  0.64191143     1.25400
C305        C  0.80842265  0.25767303  0.62192400     0.87900
C306        C  0.92558520  0.30521942  0.64057863     0.87800
C307        C  0.86848278  0.25493207  0.68835154     0.87800
C308        C  0.86443023  0.30779399  0.57190702     0.88000
O309        O  0.81459527  0.61223065  0.31269105    -0.74300
O310        O  0.90302515  0.62040123  0.34938584    -0.74400
O311        O  0.86199246  0.66043672  0.31310690    -0.74400
O312        O  0.85533241  0.57226589  0.34944059    -0.74500
O313        O  0.87667495  0.55083503  0.30262220    -0.74400
O314        O  0.88344791  0.63973752  0.26605029    -0.74400
O315        O  0.92439296  0.59929700  0.30244590    -0.74300
O316        O  0.83617875  0.59127800  0.26579601    -0.74400
Ni317      Ni  0.85804234  0.61701606  0.33285324     1.25400
Ni318      Ni  0.88099735  0.59449123  0.28257869     1.25400
C319        C  0.81081765  0.60081172  0.28288336     0.87900
C320        C  0.92837430  0.61152579  0.33182382     0.87800
C321        C  0.87366914  0.66481855  0.28358959     0.87800
C322        C  0.86402137  0.54693455  0.33190591     0.88000
O323        O  0.76332298  0.32055303  0.39338168    -0.74300
O324        O  0.80215069  0.40754377  0.38472974    -0.74400
O325        O  0.76262383  0.36892973  0.34584586    -0.74400
O326        O  0.80284902  0.35910733  0.43248792    -0.74500
O327        O  0.84831791  0.33667897  0.40941910    -0.74400
O328        O  0.80782735  0.34652199  0.32237260    -0.74400
O329        O  0.84752594  0.38548277  0.36126611    -0.74300
O330        O  0.80869764  0.29803635  0.37016594    -0.74400
Ni331      Ni  0.78122846  0.36486214  0.38998214     1.25400
Ni332      Ni  0.82978734  0.34091634  0.36501728     1.25400
C333        C  0.77952478  0.29483446  0.38313486     0.87900
C334        C  0.83082562  0.41116312  0.37081730     0.87800
C335        C  0.77833762  0.35916026  0.31969702     0.87800
C336        C  0.83186637  0.34561430  0.43547577     0.88000
C337        C  0.84333943  0.44580183  0.36439763    -0.00100
C338        C  0.82393814  0.47275701  0.37611570    -0.11900
C339        C  0.83085155  0.50574750  0.36675704     0.02200
C340        C  0.85804928  0.51271249  0.34521128    -0.00100
C341        C  0.87866502  0.48614722  0.33488040    -0.11900
C342        C  0.87184480  0.45298169  0.34448187     0.02100
H343        H  0.80225279  0.46809151  0.39174017     0.15100
H344        H  0.89997462  0.49125208  0.31886679     0.15100
C345        C  0.89429371  0.42712370  0.33287809     0.36700
C346        C  0.80797791  0.53148934  0.37792097     0.36600
N347        N  0.91249311  0.40654120  0.32364092    -0.43600
N348        N  0.78958476  0.55204365  0.38683091    -0.43600
C349        C  0.84534622  0.33933559  0.46982253    -0.00100
C350        C  0.83144958  0.35730096  0.49667689    -0.11900
C351        C  0.83879000  0.34900943  0.53003675     0.02200
C352        C  0.86031907  0.32167339  0.53734472    -0.00100
C353        C  0.87612747  0.30528263  0.51046111    -0.11900
C354        C  0.86911696  0.31394386  0.47704040     0.02100
H355        H  0.81384277  0.37743497  0.49165607     0.15100
H356        H  0.89334833  0.28482091  0.51545700     0.15100
C357        C  0.88563212  0.29514112  0.45097156     0.36700
C358        C  0.82247420  0.36827858  0.55590259     0.36600
N359        N  0.89912244  0.28009837  0.43022151    -0.43600
N360        N  0.80941401  0.38386564  0.57652697    -0.43600
C361        C  0.02775788  0.63545542  0.36717131    -0.00100
C362        C  0.02326618  0.60935234  0.34395462    -0.11900
C363        C  0.99120920  0.60009356  0.33292849     0.02200
C364        C  0.96266734  0.61714605  0.34518273    -0.00100
C365        C  0.96705699  0.64186732  0.36974199    -0.11900
C366        C  0.99896946  0.65111747  0.38079917     0.02100
H367        H  0.04490312  0.59672736  0.33348373     0.15100
H368        H  0.94544611  0.65499974  0.37965708     0.15100
C369        C  0.00097393  0.67717675  0.40580228     0.36700
C370        C  0.98854588  0.57292341  0.30921417     0.36600
N371        N  0.00244956  0.69813153  0.42575611    -0.43600
N372        N  0.98647704  0.55108971  0.29028003    -0.43600
C373        C  0.95987285  0.31792871  0.64816622    -0.00100
C374        C  0.98730362  0.30326708  0.63175632    -0.11900
C375        C  0.02033144  0.31206463  0.63979149     0.02200
C376        C  0.02670804  0.33610057  0.66509708    -0.00100
C377        C  0.99922566  0.35168091  0.68063223    -0.11900
C378        C  0.96618519  0.34299835  0.67248031     0.02100
H379        H  0.98301629  0.28430159  0.61280174     0.15100
H380        H  0.00348968  0.37034325  0.69989404     0.15100
C381        C  0.93962582  0.35947960  0.69065704     0.36700
C382        C  0.04689260  0.29480304  0.62239066     0.36600
N383        N  0.91855518  0.37293413  0.70529302    -0.43600
N384        N  0.06804779  0.28090712  0.60830141    -0.43600
C385        C  0.15230851  0.60952168  0.53825677    -0.00100
C386        C  0.12469476  0.63095893  0.53356800    -0.11900
C387        C  0.11430532  0.64065536  0.50146749     0.02200
C388        C  0.13203417  0.62931144  0.47304415    -0.00100
C389        C  0.15741153  0.60521512  0.47751420    -0.11900
C390        C  0.16743759  0.59501841  0.50969630     0.02100
H391        H  0.11183758  0.64136043  0.55507307     0.15100
H392        H  0.17047149  0.59527942  0.45590789     0.15100
C393        C  0.19318957  0.56967489  0.51244548     0.36700
C394        C  0.08538330  0.66230717  0.49864250     0.36600
N395        N  0.21363861  0.54917192  0.51455395    -0.43600
N396        N  0.06210610  0.67951580  0.49643851    -0.43600
C397        C  0.15477784  0.50797466  0.64407489    -0.00100
C398        C  0.12655572  0.50377002  0.66471415    -0.11900
C399        C  0.11528562  0.47191291  0.67393763     0.02200
C400        C  0.13262822  0.44315117  0.66289656    -0.00100
C401        C  0.15940357  0.44716433  0.64041736    -0.11900
C402        C  0.17042383  0.47906430  0.63075159     0.02100
H403        H  0.11352093  0.52548939  0.67447651     0.15100
H404        H  0.17261424  0.42531303  0.63116330     0.15100
C405        C  0.19764339  0.48103051  0.60703576     0.36700
C406        C  0.08560793  0.46964216  0.69444318     0.36600
N407        N  0.21931275  0.48241668  0.58785932    -0.43600
N408        N  0.06170889  0.46785971  0.71070676    -0.43600
C409        C  0.86832788  0.20648171  0.78524471    -0.00100
C410        C  0.87106377  0.24152799  0.78280011    -0.11900
C411        C  0.87106423  0.25781320  0.75177565     0.02200
C412        C  0.86860520  0.23897266  0.72195227    -0.00100
C413        C  0.86587632  0.20393338  0.72423121    -0.11900
C414        C  0.86537777  0.18761200  0.75539359     0.02100
H415        H  0.87297170  0.25656935  0.80534452     0.15100
H416        H  0.86360474  0.18918042  0.70152666     0.15100
C417        C  0.86188265  0.15162743  0.75560661     0.36700
C418        C  0.87446494  0.29382314  0.75159740     0.36600
N419        N  0.85877963  0.12280952  0.75542334    -0.43600
N420        N  0.87709448  0.32268365  0.75173194    -0.43600
C421        C  0.83787540  0.11744782  0.03922870    -0.00100
C422        C  0.85422604  0.14783242  0.03348678    -0.11900
C423        C  0.86431773  0.15701719  0.00136270     0.02200
C424        C  0.85795739  0.13533359  0.97387686    -0.00100
C425        C  0.84391147  0.10361049  0.98030843    -0.11900
C426        C  0.83397868  0.09451351  0.01273484     0.02100
H427        H  0.85767344  0.16532411  0.05399758     0.15100
H428        H  0.83979895  0.08617909  0.95991848     0.15100
C429        C  0.82065259  0.06136602  0.01839447     0.36700
C430        C  0.87972785  0.18956016  0.99780316     0.36600
N431        N  0.81037486  0.03466954  0.02306113    -0.43600
N432        N  0.89197781  0.21569303  0.99518855    -0.43600
C433        C  0.11357721  0.19695182  0.77804853    -0.00100
C434        C  0.11399931  0.19908520  0.74288413    -0.11900
C435        C  0.11371669  0.23005394  0.72645348     0.02200
C436        C  0.11309421  0.26001372  0.74533048    -0.00100
C437        C  0.11154544  0.25786359  0.78048939    -0.11900
C438        C  0.11174023  0.22683791  0.79692143     0.02100
H439        H  0.11509848  0.17640509  0.72799910     0.15100
H440        H  0.11070866  0.28055716  0.79536513     0.15100
C441        C  0.10932343  0.22662357  0.83306572     0.36700
C442        C  0.11347946  0.23000110  0.69021860     0.36600
N443        N  0.10731113  0.22648222  0.86201910    -0.43600
N444        N  0.11326393  0.22980005  0.66119144    -0.43600
C445        C  0.95915203  0.13149920  0.86641069    -0.00100
C446        C  0.98432211  0.13876355  0.88995761    -0.11900
C447        C  0.01790575  0.13056452  0.88377571     0.02200
C448        C  0.02684117  0.11522808  0.85305353    -0.09700
C449        C  0.00116607  0.10667175  0.83034042    -0.11900
C450        C  0.96775135  0.11469847  0.83664140     0.02100
H451        H  0.97775884  0.15138760  0.91309444     0.15100
H452        H  0.00718829  0.09478904  0.80668596     0.15100
C453        C  0.94335631  0.10766026  0.81079860     0.36700
C454        C  0.04231571  0.13871865  0.90928443     0.36600
N455        N  0.92411084  0.10195586  0.78982814    -0.43600
N456        N  0.06171340  0.14521952  0.92990512    -0.43600
C457        C  0.14868846  0.94563418  0.87478013    -0.00100
C458        C  0.16501661  0.97213766  0.89126501    -0.11900
C459        C  0.15769371  0.00555281  0.88349813     0.02200
C460        C  0.13331430  0.01303623  0.85875321    -0.00100
C461        C  0.11535740  0.98661507  0.84405442    -0.11900
C462        C  0.12275437  0.95324237  0.85166964     0.02100
H463        H  0.18462539  0.96681406  0.90941894     0.15100
H464        H  0.09615231  0.99197526  0.82547534     0.15100
C465        C  0.10450363  0.92771015  0.83367479     0.36700
C466        C  0.17725779  0.03123583  0.89982756     0.36600
N467        N  0.08979555  0.90739242  0.81914792    -0.43600
N468        N  0.19305760  0.05167239  0.91298048    -0.43600
C469        C  0.87407293  0.76384366  0.23933497    -0.00100
C470        C  0.87452177  0.76010271  0.27437472    -0.11900
C471        C  0.87483628  0.72836129  0.28940335     0.02200
C472        C  0.87507062  0.69920795  0.26920343    -0.00100
C473        C  0.87558897  0.70297729  0.23417492    -0.11900
C474        C  0.87494818  0.73471657  0.21915200     0.02100
H475        H  0.87391679  0.78211422  0.29026465     0.15100
H476        H  0.87579159  0.68096172  0.21828100     0.15100
C477        C  0.87550406  0.73635331  0.18296130     0.36700
C478        C  0.87517218  0.72679522  0.32561024     0.36600
N479        N  0.87586046  0.73762085  0.15395980    -0.43600
N480        N  0.87533987  0.72569007  0.35462323    -0.43600
C481        C  0.85233650  0.94954786  0.16324627    -0.00100
C482        C  0.82749195  0.95354310  0.13846974    -0.11900
C483        C  0.81685071  0.98535754  0.12826610     0.02200
C484        C  0.83155880  0.01415838  0.14273454    -0.00100
C485        C  0.85797563  0.01004127  0.16580654    -0.11900
C486        C  0.86831124  0.97827270  0.17626448     0.02100
H487        H  0.81519309  0.93172292  0.12797465     0.15100
H488        H  0.86990618  0.03177386  0.17687709     0.15100
C489        C  0.89506351  0.97622677  0.20068848     0.36700
C490        C  0.79040721  0.98729167  0.10347464     0.36600
N491        N  0.91641865  0.97479254  0.22035879    -0.43600
N492        N  0.76911473  0.98858671  0.08371917    -0.43600
C493        C  0.10683258  0.74592363  0.22726865    -0.00100
C494        C  0.10492645  0.71089761  0.23015229    -0.11900
C495        C  0.10649406  0.69510758  0.26146721     0.02200
C496        C  0.11055230  0.71445198  0.29084970    -0.00100
C497        C  0.11059330  0.74953878  0.28814873    -0.11900
C498        C  0.10849984  0.76536722  0.25684011     0.02100
H499        H  0.10283562  0.69561218  0.20779929     0.15100
H500        H  0.11273081  0.76474367  0.31055547     0.15100
C501        C  0.10719442  0.80152561  0.25603316     0.36700
C502        C  0.10281890  0.65912245  0.26262867     0.36600
N503        N  0.10590664  0.83048710  0.25541241    -0.43600
N504        N  0.09965250  0.63032267  0.26360968    -0.43600
C505        C  0.14889721  0.83661978  0.97513837    -0.00100
C506        C  0.15633617  0.85850698  0.00154914    -0.11900
C507        C  0.14618994  0.85135232  0.03435462     0.02200
C508        C  0.12868297  0.82123025  0.04127773    -0.00100
C509        C  0.12007924  0.80016347  0.01438241    -0.11900
C510        C  0.13000676  0.80747265  0.98166511     0.02100
H511        H  0.17037129  0.88121643  0.99656364     0.15100
H512        H  0.10657661  0.77706068  0.01893314     0.15100
C513        C  0.12234339  0.78332907  0.95580228     0.36700
C514        C  0.15456289  0.87537380  0.06006543     0.36600
N515        N  0.11625369  0.76394248  0.93513505    -0.43600
N516        N  0.16125431  0.89479013  0.08051981    -0.43600
C517        C  0.95959135  0.84940021  0.16452719    -0.00100
C518        C  0.96451496  0.83038255  0.13533230    -0.11900
C519        C  0.99659293  0.82066683  0.12534295     0.02200
C520        C  0.02460798  0.82939692  0.14515834    -0.00100
C521        C  0.02014189  0.85133260  0.17220348    -0.11900
C522        C  0.98810978  0.86173024  0.18182266     0.02100
H523        H  0.94310156  0.82193764  0.12068987     0.15100
H524        H  0.04170107  0.85928675  0.18693611     0.15100
C525        C  0.98556692  0.88474819  0.20960292     0.36700
C526        C  0.00003133  0.80205842  0.09452567     0.36600
N527        N  0.98370741  0.90337422  0.23172121    -0.43600
N528        N  0.00277059  0.78743915  0.06965646    -0.43600
C529        C  0.27507448  0.74669516  0.39052141    -0.00100
C530        C  0.27359724  0.71150067  0.38978422    -0.11900
C531        C  0.24288823  0.69459590  0.38946007     0.02200
C532        C  0.21260666  0.71299569  0.39009020    -0.00100
C533        C  0.21414207  0.74815352  0.39195923    -0.11900
C534        C  0.24482724  0.76505087  0.39209384     0.02100
H535        H  0.29657546  0.69700054  0.38876562     0.15100
H536        H  0.19119400  0.76271912  0.39266692     0.15100
C537        C  0.24429450  0.80115701  0.39436504     0.36700
C538        C  0.24347188  0.65842697  0.38893815     0.36600
N539        N  0.24376935  0.83008436  0.39617626    -0.43600
N540        N  0.24410054  0.62944467  0.38851714    -0.43600
C541        C  0.70848482  0.86466400  0.26908919    -0.00100
C542        C  0.71152659  0.85735842  0.23485784    -0.11900
C543        C  0.74290491  0.85658757  0.21933129     0.02200
C544        C  0.77224678  0.86311994  0.23836160    -0.00100
C545        C  0.76879990  0.87181876  0.27239838    -0.11900
C546        C  0.73738154  0.87275613  0.28775188     0.02100
H547        H  0.68930029  0.85149224  0.22027944     0.15100
H548        H  0.79074257  0.87771569  0.28735306     0.15100
C549        C  0.73540620  0.88326550  0.32233953     0.36700
C550        C  0.74377887  0.84923449  0.18389439     0.36600
N551        N  0.73378649  0.89192211  0.34996742    -0.43600
N552        N  0.74428060  0.84342406  0.15547415    -0.43600
C553        C  0.52517014  0.84227640  0.34840202    -0.00100
C554        C  0.49809752  0.86182998  0.33703358    -0.11900
C555        C  0.46507621  0.85425595  0.34618933     0.02200
C556        C  0.45861978  0.82679969  0.36783223    -0.00100
C557        C  0.48596416  0.80799364  0.37997089    -0.11900
C558        C  0.51876157  0.81499343  0.37008422     0.02100
H559        H  0.50263792  0.88264105  0.32011892     0.15100
H560        H  0.48171880  0.78659483  0.39620195     0.15100
C561        C  0.54474937  0.79184216  0.38035628     0.36700
C562        C  0.43857192  0.87408812  0.33134382     0.36600
N563        N  0.56543606  0.77304406  0.38829659    -0.43600
N564        N  0.41745190  0.88994063  0.31917764    -0.43600
C565        C  0.25573755  0.86155376  0.72722657    -0.00100
C566        C  0.22084813  0.86461260  0.73068567    -0.11900
C567        C  0.20590429  0.86551558  0.76228658     0.02200
C568        C  0.22598973  0.86301559  0.79146201    -0.00100
C569        C  0.26094773  0.86136048  0.78811977    -0.11900
C570        C  0.27595770  0.86074768  0.75648680     0.02100
H571        H  0.20496343  0.86586360  0.70858923     0.15100
H572        H  0.27667592  0.85978788  0.81031726     0.15100
C573        C  0.31212033  0.85986114  0.75512737     0.36700
C574        C  0.16997120  0.86970207  0.76380740     0.36600
N575        N  0.34109951  0.85926294  0.75411611    -0.43600
N576        N  0.14119439  0.87313730  0.76491942    -0.43600
C577        C  0.25586367  0.76030141  0.62859480    -0.00100
C578        C  0.22453796  0.75508150  0.61292871    -0.11900
C579        C  0.20984842  0.72314713  0.61179392     0.02200
C580        C  0.22690525  0.69545077  0.62573649    -0.00100
C581        C  0.25809285  0.70038090  0.64109140    -0.11900
C582        C  0.27234099  0.73230537  0.64329383     0.02100
H583        H  0.21126438  0.77599775  0.60165707     0.15100
H584        H  0.27088726  0.67923877  0.65257813     0.15100
C585        C  0.30306744  0.73531126  0.66227788     0.36700
C586        C  0.17765685  0.71930071  0.59557636     0.36600
N587        N  0.32750738  0.73752050  0.67782587    -0.43600
N588        N  0.15185131  0.71619807  0.58261324    -0.43600
C589        C  0.33122419  0.84437931  0.54092620    -0.00100
C590        C  0.35851763  0.82245174  0.53673784    -0.11900
C591        C  0.36977280  0.81346653  0.50479730     0.02200
C592        C  0.35344673  0.82631339  0.47598299    -0.00100
C593        C  0.32775219  0.85007120  0.48016529    -0.11900
C594        C  0.31664721  0.85926265  0.51210943     0.02100
H595        H  0.37060393  0.81135168  0.55849259     0.15100
H596        H  0.31532085  0.86070592  0.45836732     0.15100
C597        C  0.29029387  0.88400813  0.51425724     0.36700
C598        C  0.39818065  0.79112239  0.50257776     0.36600
N599        N  0.26925214  0.90392480  0.51585018    -0.43600
N600        N  0.42103309  0.77332023  0.50092320    -0.43600
C601        C  0.27763645  0.10130228  0.74854428    -0.00100
C602        C  0.27538998  0.10738151  0.78312126    -0.11900
C603        C  0.24439201  0.10741157  0.79947003     0.02200
C604        C  0.21469320  0.10096116  0.78104048    -0.00100
C605        C  0.21726514  0.09431348  0.74645703    -0.11900
C606        C  0.24820479  0.09449057  0.73018539     0.02100
H607        H  0.29796820  0.11262923  0.79739838     0.15100
H608        H  0.19495322  0.08916488  0.73176406     0.15100
C609        C  0.24905046  0.08647381  0.69487431     0.36700
C610        C  0.24421981  0.11389261  0.83508651     0.36600
N611        N  0.24973301  0.07998386  0.66661004    -0.43600
N612        N  0.24425993  0.11912478  0.86362644    -0.43600
C613        C  0.35055396  0.01307987  0.66804531    -0.00100
C614        C  0.32086738  0.00926128  0.64943986    -0.11900
C615        C  0.30980866  0.97762249  0.63903513     0.02200
C616        C  0.32867036  0.94856277  0.64729569    -0.00100
C617        C  0.35928043  0.95276096  0.66455435    -0.11900
C618        C  0.37030181  0.98449529  0.67480732     0.02100
H619        H  0.30558155  0.03106788  0.64382342     0.15100
H620        H  0.37457503  0.93111716  0.67066875     0.15100
C621        C  0.40242119  0.98708312  0.69138369     0.36700
C622        C  0.27877284  0.97617217  0.62034390     0.36600
N623        N  0.42828302  0.98920900  0.70442626    -0.43600
N624        N  0.25391480  0.97520371  0.60533022    -0.43600
C625        C  0.73069883  0.19830177  0.38667360    -0.00100
C626        C  0.76585997  0.20018146  0.38604850    -0.11900
C627        C  0.78240555  0.23110578  0.38556637     0.02200
C628        C  0.76366952  0.26122806  0.38562348    -0.00100
C629        C  0.72854857  0.25930373  0.38757557    -0.11900
C630        C  0.71202250  0.22839827  0.38816120     0.02100
H631        H  0.78060704  0.17734459  0.38530334     0.15100
H632        H  0.71373750  0.28210447  0.38812297     0.15100
C633        C  0.67595211  0.22855591  0.39104382     0.36700
C634        C  0.81859338  0.23091742  0.38572495     0.36600
N635        N  0.64705853  0.22886353  0.39343104    -0.43600
N636        N  0.84759446  0.23061173  0.38593574    -0.43600
C637        C  0.72835936  0.09937963  0.28705014    -0.00100
C638        C  0.70685405  0.10143411  0.25910503    -0.11900
C639        C  0.71942744  0.10200621  0.22642078     0.02200
C640        C  0.75440008  0.10058144  0.22111687    -0.00100
C641        C  0.77585547  0.09756957  0.24897452    -0.11900
C642        C  0.76329990  0.09685465  0.28165550     0.02100
H643        H  0.67998105  0.10307378  0.26274512     0.15100
H644        H  0.80272971  0.09605132  0.24526839     0.15100
C645        C  0.78717303  0.09479545  0.30890883     0.36700
C646        C  0.69577873  0.10557328  0.19912361     0.36600
N647        N  0.80642861  0.09310443  0.33062845    -0.43600
N648        N  0.67673795  0.10843596  0.17733440    -0.43600
C649        C  0.64812681  0.01549463  0.36568806    -0.00100
C650        C  0.65959007  0.98837404  0.38511428    -0.11900
C651        C  0.65058570  0.95537853  0.37733422     0.02200
C652        C  0.62980884  0.94891401  0.34914708    -0.00100
C653        C  0.61688810  0.97628291  0.33097873    -0.11900
C654        C  0.62578531  0.00918249  0.33883276     0.02100
H655        H  0.67632553  0.99288461  0.40611353     0.15100
H656        H  0.60060480  0.97203258  0.30958370     0.15100
C657        C  0.61319226  0.03553065  0.31729341     0.36700
C658        C  0.66411343  0.92898637  0.39825084     0.36600
N659        N  0.60306083  0.05651801  0.29991285    -0.43600
N660        N  0.67498263  0.90800458  0.41519762    -0.43600
C661        C  0.77424501  0.24288538  0.61947133    -0.00100
C662        C  0.77106595  0.20801226  0.61544853    -0.11900
C663        C  0.73967585  0.19234188  0.61666540     0.02200
C664        C  0.71044099  0.21170334  0.62159615    -0.00100
C665        C  0.71340714  0.24662334  0.62402040    -0.11900
C666        C  0.74471432  0.26229194  0.62323207     0.02100
H667        H  0.79327524  0.19265785  0.61228272     0.15100
H668        H  0.69112981  0.26182271  0.62756102     0.15100
C669        C  0.74537132  0.29828979  0.62676191     0.36700
C670        C  0.73831603  0.15645732  0.61239851     0.36600
N671        N  0.74572203  0.32711215  0.62980383    -0.43600
N672        N  0.73736912  0.12769178  0.60901426    -0.43600
C673        C  0.52518676  0.13521982  0.64456693    -0.00100
C674        C  0.52136052  0.10877220  0.66762167    -0.11900
C675        C  0.48965048  0.09895114  0.67888930     0.02200
C676        C  0.46059215  0.11499711  0.66616130    -0.00100
C677        C  0.46434514  0.14008501  0.64171304    -0.11900
C678        C  0.49601671  0.15071156  0.63132277     0.02100
H679        H  0.54331733  0.09665778  0.67824939     0.15100
H680        H  0.44241972  0.15290906  0.63187478     0.15100
C681        C  0.49734149  0.17861311  0.60821874     0.36700
C682        C  0.48810169  0.07311298  0.70427672     0.36600
N683        N  0.49816403  0.20127015  0.59006831    -0.43600
N684        N  0.48711645  0.05264849  0.72486882    -0.43600
C685        C  0.63079746  0.13384599  0.53827666    -0.00100
C686        C  0.61537083  0.15044123  0.51117599    -0.11900
C687        C  0.62410913  0.14335716  0.47803875     0.02200
C688        C  0.64900578  0.11902298  0.47129680    -0.00100
C689        C  0.66293380  0.10095772  0.49825092    -0.11900
C690        C  0.65405417  0.10793950  0.53143015     0.02100
H691        H  0.59705421  0.16996649  0.51583959     0.15100
H692        H  0.68155768  0.08174656  0.49349588     0.15100
C693        C  0.67044882  0.08889264  0.55761660     0.36700
C694        C  0.60814434  0.16286547  0.45190617     0.36600
N695        N  0.68363076  0.07338167  0.57839503    -0.43600
N696        N  0.59516626  0.17854023  0.43112314    -0.43600
C697        C  0.37145852  0.71903075  0.22654899    -0.00100
C698        C  0.36940447  0.75404209  0.22928393    -0.11900
C699        C  0.37018464  0.76976136  0.26061936     0.02200
C700        C  0.37267809  0.75023167  0.29023146    -0.00100
C701        C  0.37625322  0.71534159  0.28732010    -0.11900
C702        C  0.37593726  0.69971044  0.25599197     0.02100
H703        H  0.36670295  0.76925824  0.20686297     0.15100
H704        H  0.37891935  0.69999536  0.30965115     0.15100
C705        C  0.38140005  0.66394779  0.25494051     0.36700
C706        C  0.36914146  0.80593495  0.26131549     0.36600
N707        N  0.38600188  0.63533019  0.25414087    -0.43600
N708        N  0.36845952  0.83491757  0.26180292    -0.43600
C709        C  0.20474155  0.74157945  0.12437670    -0.00100
C710        C  0.20848461  0.70697873  0.12941695    -0.11900
C711        C  0.24031798  0.69204089  0.12947928     0.02200
C712        C  0.26928622  0.71209518  0.12510634    -0.00100
C713        C  0.26506130  0.74627976  0.11751372    -0.11900
C714        C  0.23325120  0.76094759  0.11667325     0.02100
H715        H  0.18656616  0.69166306  0.13412464     0.15100
H716        H  0.28670462  0.76191021  0.11264314     0.15100
C717        C  0.23046468  0.79568547  0.10670967     0.36700
C718        C  0.24219150  0.65611371  0.13343285     0.36600
N719        N  0.22800836  0.82339022  0.09841642    -0.43600
N720        N  0.24360320  0.62728773  0.13631869    -0.43600
C721        C  0.75947165  0.20115591  0.12127862    -0.00100
C722        C  0.72467047  0.20510060  0.12382212    -0.11900
C723        C  0.70995543  0.23687049  0.12404042     0.02200
C724        C  0.73031176  0.26587322  0.12186117    -0.00100
C725        C  0.76510228  0.26183782  0.11805873    -0.11900
C726        C  0.77975786  0.22991959  0.11763327     0.02100
H727        H  0.70879413  0.18318567  0.12631283     0.15100
H728        H  0.78106915  0.28369470  0.11581501     0.15100
C729        C  0.81546411  0.22746571  0.11232694     0.36700
C730        C  0.67384049  0.23853573  0.12603045     0.36600
N731        N  0.84404335  0.22552940  0.10785349    -0.43600
N732        N  0.64490572  0.23974589  0.12759320    -0.43600
C733        C  0.76231208  0.36213619  0.28589759    -0.00100
C734        C  0.78198883  0.35627484  0.25728206    -0.11900
C735        C  0.76808326  0.35723757  0.22498813     0.02200
C736        C  0.73359867  0.36426041  0.22060902    -0.00100
C737        C  0.71392102  0.37047010  0.24897679    -0.11900
C738        C  0.72780162  0.36968008  0.28131842     0.02100
H739        H  0.80840726  0.35042703  0.26004263     0.15100
H740        H  0.68743762  0.37590632  0.24587226     0.15100
C741        C  0.70552936  0.37599099  0.30906597     0.36700
C742        C  0.78951237  0.34904881  0.19702460     0.36600
N743        N  0.68753807  0.38110634  0.33118210    -0.43600
N744        N  0.80665571  0.34237258  0.17465022    -0.43600
C745        C  0.71044350  0.59920790  0.24176919    -0.00100
C746        C  0.73825121  0.59953960  0.22027875    -0.11900
C747        C  0.77102506  0.59939221  0.23290810     0.02200
C748        C  0.77666495  0.59904555  0.26799512    -0.00100
C749        C  0.74887585  0.59816073  0.28950612    -0.11900
C750        C  0.71608005  0.59813956  0.27686955     0.02100
H751        H  0.73443436  0.60021240  0.19334472     0.15100
H752        H  0.75272992  0.59772345  0.31644234     0.15100
C753        C  0.68895890  0.59829497  0.30077809     0.36700
C754        C  0.79813759  0.60098357  0.20904862     0.36600
N755        N  0.66733678  0.59838473  0.32005316    -0.43600
N756        N  0.81979818  0.60225021  0.18985933    -0.43600
C757        C  0.61159820  0.69917311  0.24298399    -0.00100
C758        C  0.61613059  0.72710978  0.22186594    -0.11900
C759        C  0.61622417  0.75971327  0.23459251     0.02200
C760        C  0.61125831  0.76501673  0.26920603    -0.00100
C761        C  0.60641502  0.73729766  0.29032622    -0.11900
C762        C  0.60665562  0.70463533  0.27771457     0.02100
H763        H  0.62020298  0.72356525  0.19523291     0.15100
H764        H  0.60275795  0.74114700  0.31699458     0.15100
C765        C  0.60308667  0.67750037  0.30145326     0.36700
C766        C  0.62355606  0.78693527  0.21182146     0.36600
N767        N  0.60033319  0.65589527  0.32065613    -0.43600
N768        N  0.62965777  0.80864475  0.19354910    -0.43600
C769        C  0.52419550  0.62182292  0.16594920    -0.00100
C770        C  0.51928627  0.64882025  0.14379936    -0.11900
C771        C  0.48703440  0.65956640  0.13477481     0.02200
C772        C  0.45850822  0.64301804  0.14791376    -0.00100
C773        C  0.46356135  0.61499105  0.16882468    -0.11900
C774        C  0.49581471  0.60433712  0.17787318     0.02100
H775        H  0.54075763  0.66246717  0.13433388     0.15100
H776        H  0.44220333  0.60163845  0.17891884     0.15100
C777        C  0.49882383  0.57523010  0.19928816     0.36700
C778        C  0.48440107  0.68787881  0.11228187     0.36600
N779        N  0.50117756  0.55188921  0.21642237    -0.43600
N780        N  0.48245067  0.71059734  0.09427879    -0.43600
C781        C  0.62975583  0.51522288  0.16197269    -0.00100
C782        C  0.65272143  0.51186638  0.13544494    -0.11900
C783        C  0.66365354  0.48028452  0.12471840     0.02200
C784        C  0.65180955  0.45108026  0.14085215    -0.00100
C785        C  0.62691413  0.45438976  0.16553053    -0.11900
C786        C  0.61572868  0.48588233  0.17602489     0.02100
H787        H  0.66314775  0.53400484  0.12366820     0.15100
H788        H  0.61683216  0.43227494  0.17766164     0.15100
C789        C  0.58991801  0.48702968  0.20131950     0.36700
C790        C  0.68674453  0.47877407  0.09695445     0.36600
N791        N  0.56916785  0.48784915  0.22151364    -0.43600
N792        N  0.70507071  0.47766737  0.07454694    -0.43600
C793        C  0.27477026  0.36206972  0.77583005    -0.00100
C794        C  0.27226384  0.36233860  0.74067591    -0.11900
C795        C  0.24105477  0.36216307  0.72459060     0.02200
C796        C  0.21135134  0.36126508  0.74381565    -0.00100
C797        C  0.21387316  0.36269577  0.77896397    -0.11900
C798        C  0.24509794  0.36332398  0.79503277     0.02100
H799        H  0.29481701  0.36210685  0.72556714     0.15100
H800        H  0.19134534  0.36280961  0.79410440     0.15100
C801        C  0.24577558  0.36625915  0.83113399     0.36700
C802        C  0.24047222  0.36384839  0.68839886     0.36600
N803        N  0.24621732  0.36883923  0.86003834    -0.43600
N804        N  0.24010035  0.36541929  0.65940937    -0.43600
C805        C  0.37535915  0.26290592  0.77352631    -0.00100
C806        C  0.38389721  0.23529825  0.79363529    -0.11900
C807        C  0.38557812  0.20291928  0.78027642     0.02200
C808        C  0.37815983  0.19750006  0.74588969    -0.00100
C809        C  0.37035978  0.22548330  0.72567823    -0.11900
C810        C  0.36888909  0.25785015  0.73908707     0.02100
H811        H  0.38920029  0.23903340  0.82007368     0.15100
H812        H  0.36458660  0.22210938  0.69930848     0.15100
C813        C  0.35869285  0.28504951  0.71732128     0.36700
C814        C  0.39419837  0.17596933  0.80294929     0.36600
N815        N  0.35039795  0.30683103  0.69994613    -0.43600
N816        N  0.40116496  0.15450325  0.82126772    -0.43600
C817        C  0.25614191  0.69580844  0.88598793    -0.00100
C818        C  0.27697310  0.72411468  0.88534469    -0.11900
C819        C  0.26352307  0.75644548  0.88482873     0.02200
C820        C  0.22837714  0.76099820  0.88582062    -0.00100
C821        C  0.20752692  0.73272169  0.88586383    -0.11900
C822        C  0.22096387  0.70037542  0.88553578     0.02100
H823        H  0.30398245  0.72104711  0.88490161     0.15100
H824        H  0.18051662  0.73584281  0.88587919     0.15100
C825        C  0.19792396  0.67261552  0.88292170     0.36700
C826        C  0.28645137  0.78421645  0.88138573     0.36600
N827        N  0.17943865  0.65043074  0.88053150    -0.43600
N828        N  0.30483739  0.80640102  0.87832219    -0.43600
C829        C  0.22887302  0.59803373  0.72563772    -0.00100
C830        C  0.26386427  0.59531827  0.72917369    -0.11900
C831        C  0.27918526  0.59490250  0.76082979     0.02200
C832        C  0.25937813  0.59683501  0.79010861    -0.00100
C833        C  0.22440186  0.59899844  0.78666956    -0.11900
C834        C  0.20907453  0.59984611  0.75501165     0.02100
H835        H  0.27954555  0.59395491  0.70705341     0.15100
H836        H  0.20887062  0.60079796  0.80887532     0.15100
C837        C  0.17298465  0.60237354  0.75379402     0.36700
C838        C  0.31524942  0.59200696  0.76229429     0.36600
N839        N  0.14406502  0.60451270  0.75293878    -0.43600
N840        N  0.34415558  0.58980052  0.76335981    -0.43600
C841        C  0.33412400  0.61945322  0.97663550    -0.00100
C842        C  0.32004861  0.60226451  0.00396820    -0.11900
C843        C  0.32841877  0.61058299  0.03708004     0.02200
C844        C  0.35152226  0.63674724  0.04344016    -0.00100
C845        C  0.36670166  0.65281378  0.01606566    -0.11900
C846        C  0.35821253  0.64467745  0.98305625     0.02100
H847        H  0.30171571  0.58273436  0.99952385     0.15100
H848        H  0.38457612  0.67279441  0.02038828     0.15100
C849        C  0.37324205  0.66435970  0.95664623     0.36700
C850        C  0.31145947  0.59287242  0.06370320     0.36600
N851        N  0.38528386  0.68030751  0.93562613    -0.43600
N852        N  0.29779099  0.57861537  0.08493712    -0.43600
C853        C  0.35444777  0.44489241  0.85768732    -0.00100
C854        C  0.37098770  0.47196588  0.84247880    -0.11900
C855        C  0.36282377  0.50505628  0.85027063     0.02200
C856        C  0.33736917  0.51182137  0.87394281    -0.00100
C857        C  0.32254450  0.48479574  0.89100180    -0.11900
C858        C  0.33092402  0.45159765  0.88333462     0.02100
H859        H  0.38968857  0.46736135  0.82335208     0.15100
H860        H  0.30352385  0.48953811  0.90977434     0.15100
C861        C  0.31378246  0.42528520  0.90130483     0.36700
C862        C  0.37982018  0.53119208  0.83190259     0.36600
N863        N  0.30005940  0.40435736  0.91594667    -0.43600
N864        N  0.39357115  0.55200676  0.81713541    -0.43600
C865        C  0.70866989  0.23593586  0.88689441    -0.00100
C866        C  0.73680396  0.25615614  0.88075822    -0.11900
C867        C  0.76912485  0.24277267  0.88031717     0.02200
C868        C  0.77409236  0.20819119  0.88612371    -0.00100
C869        C  0.74617827  0.18787024  0.89270986    -0.11900
C870        C  0.71370141  0.20134680  0.89342050     0.02100
H871        H  0.73365412  0.28270963  0.87585494     0.15100
H872        H  0.74974188  0.16131948  0.89738369     0.15100
C873        C  0.68629779  0.17879728  0.90034301     0.36700
C874        C  0.79645071  0.26505914  0.87222501     0.36600
N875        N  0.66443592  0.16064806  0.90602610    -0.43600
N876        N  0.81832498  0.28291158  0.86573119    -0.43600
C877        C  0.60699229  0.23878037  0.78869576    -0.00100
C878        C  0.60887176  0.26018427  0.76070934    -0.11900
C879        C  0.60973577  0.24756925  0.72805248     0.02200
C880        C  0.60920610  0.21257346  0.72272576    -0.00100
C881        C  0.60590857  0.19116447  0.75054978    -0.11900
C882        C  0.60438175  0.20384612  0.78325270     0.02100
H883        H  0.61020466  0.28707516  0.76430277     0.15100
H884        H  0.60463915  0.16429422  0.74677505     0.15100
C885        C  0.60104222  0.18018524  0.81049404     0.36700
C886        C  0.61253009  0.27128894  0.70077530     0.36600
N887        N  0.59814070  0.16110686  0.83219719    -0.43600
N888        N  0.61463374  0.29035391  0.67896545    -0.43600
C889        C  0.63373647  0.31999224  0.97173478    -0.00100
C890        C  0.66167686  0.34103411  0.97502513    -0.11900
C891        C  0.67227880  0.35257800  0.00639505     0.02200
C892        C  0.65437458  0.34350000  0.03574342    -0.00100
C893        C  0.62532292  0.32381164  0.03212938    -0.11900
C894        C  0.61503383  0.31193534  0.00066230     0.02100
H895        H  0.67628162  0.34747696  0.95304624     0.15100
H896        H  0.61102382  0.31670116  0.05407962     0.15100
C897        C  0.58514355  0.29165759  0.99891112     0.36700
C898        C  0.70233360  0.37270074  0.00724864     0.36600
N899        N  0.56119479  0.27539815  0.99751117    -0.43600
N900        N  0.72655524  0.38860988  0.00768687    -0.43600
C901        C  0.52655710  0.32204137  0.86983337    -0.00100
C902        C  0.49964777  0.30800306  0.88758655    -0.11900
C903        C  0.46649810  0.31684882  0.88033252     0.02200
C904        C  0.45957837  0.34041576  0.85461443    -0.00100
C905        C  0.48661360  0.35625847  0.83857551    -0.11900
C906        C  0.51979372  0.34741657  0.84586620     0.02100
H907        H  0.50438927  0.28906012  0.90656945     0.15100
H908        H  0.48187165  0.37487871  0.81928068     0.15100
C909        C  0.54593060  0.36367668  0.82687634     0.36700
C910        C  0.44041632  0.29978052  0.89865660     0.36600
N911        N  0.56671820  0.37684224  0.81157353    -0.43600
N912        N  0.41967354  0.28598774  0.91345426    -0.43600
loop_ 
_geom_bond_atom_site_label_1 
_geom_bond_atom_site_label_2 
_geom_bond_distance 
_geom_bond_site_symmetry_2 
_ccdc_geom_bond_type 
O1           Ni9   1.911       .  S
O1           C11   1.281       .  A
O2           Ni9   1.911       .  S
O2           C12   1.281       .  A
O3           Ni9   1.911       .  S
O3           C13   1.282       .  A
O4           Ni9   1.912       .  S
O4           C14   1.280       .  A
O5          Ni10   1.912       .  S
O5           C14   1.282       .  A
O6          Ni10   1.915       .  S
O6           C13   1.280       .  A
O7          Ni10   1.919       .  S
O7           C12   1.282       .  A
O8          Ni10   1.920       .  S
O8           C11   1.281       .  A
Ni9         Ni10   2.384       .  S
C11         C877   1.487       .  S
C12         C889   1.485       .  S
C13         C865   1.488       .  S
C14         C901   1.485       .  S
O15         Ni23   1.909       .  S
O15          C25   1.280       .  A
O16         Ni23   1.913       .  S
O16          C26   1.281       .  A
O17         Ni23   1.920       .  S
O17          C27   1.283       .  A
O18         Ni23   1.920       .  S
O18          C28   1.283       .  A
O19         Ni24   1.912       .  S
O19          C28   1.280       .  A
O20         Ni24   1.909       .  S
O20          C27   1.279       .  A
O21         Ni24   1.910       .  S
O21          C26   1.280       .  A
O22         Ni24   1.911       .  S
O22          C25   1.281       .  A
Ni23        Ni24   2.384       .  S
C25         C817   1.480       .  S
C26         C856   1.485       .  S
C27         C841   1.487       .  S
C28         C832   1.485       .  S
O29         Ni37   1.911       .  S
O29          C39   1.281       .  A
O30         Ni37   1.911       .  S
O30          C40   1.281       .  A
O31         Ni37   1.914       .  S
O31          C41   1.280       .  A
O32         Ni37   1.910       .  S
O32          C42   1.282       .  A
O33         Ni38   1.916       .  S
O33          C42   1.280       .  A
O34         Ni38   1.918       .  S
O34          C41   1.282       .  A
O35         Ni38   1.912       .  S
O35          C40   1.280       .  A
O36         Ni38   1.915       .  S
O36          C39   1.281       .  A
Ni37        Ni38   2.385       .  S
C39         C793   1.482       .  S
C40         C904   1.486       .  S
C41         C805   1.480       .  S
C42         C853   1.486       .  S
O43         Ni51   1.920       .  S
O43          C53   1.283       .  A
O44         Ni51   1.921       .  S
O44          C54   1.283       .  A
O45         Ni51   1.910       .  S
O45          C55   1.281       .  A
O46         Ni51   1.913       .  S
O46          C56   1.281       .  A
O47         Ni52   1.916       .  S
O47          C56   1.282       .  A
O48         Ni52   1.916       .  S
O48          C55   1.281       .  A
O49         Ni52   1.911       .  S
O49          C54   1.280       .  A
O50         Ni52   1.911       .  S
O50          C53   1.279       .  A
Ni51        Ni52   2.383       .  S
C53         C745   1.487       .  S
C54         C769   1.487       .  S
C55         C757   1.487       .  S
C56         C781   1.489       .  S
O57         Ni65   1.923       .  S
O57          C67   1.283       .  A
O58         Ni65   1.925       .  S
O58          C68   1.283       .  A
O59         Ni65   1.911       .  S
O59          C69   1.279       .  A
O60         Ni65   1.909       .  S
O60          C70   1.279       .  A
O61         Ni66   1.924       .  S
O61          C70   1.284       .  A
O62         Ni66   1.923       .  S
O62          C69   1.283       .  A
O63         Ni66   1.907       .  S
O63          C68   1.279       .  A
O64         Ni66   1.903       .  S
O64          C67   1.278       .  A
Ni65        Ni66   2.383       .  S
C67         C724   1.486       .  S
C68         C784   1.488       .  S
C69         C736   1.483       .  S
C70         C892   1.494       .  S
O71         Ni79   1.914       .  S
O71          C81   1.281       .  A
O72         Ni79   1.911       .  S
O72          C82   1.282       .  A
O73         Ni79   1.914       .  S
O73          C83   1.282       .  A
O74         Ni79   1.915       .  S
O74          C84   1.281       .  A
O75         Ni80   1.918       .  S
O75          C84   1.283       .  A
O76         Ni80   1.918       .  S
O76          C83   1.281       .  A
O77         Ni80   1.913       .  S
O77          C82   1.280       .  A
O78         Ni80   1.913       .  S
O78          C81   1.281       .  A
Ni79        Ni80   2.383       .  S
C81         C697   1.482       .  S
C82         C844   1.487       .  S
C83         C712   1.489       .  S
C84         C772   1.493       .  S
O85         Ni93   1.912       .  S
O85          C95   1.281       .  A
O86         Ni93   1.908       .  S
O86          C96   1.279       .  A
O87         Ni93   1.910       .  S
O87          C97   1.280       .  A
O88         Ni93   1.909       .  S
O88          C98   1.281       .  A
O89         Ni94   1.915       .  S
O89          C98   1.280       .  A
O90         Ni94   1.918       .  S
O90          C97   1.282       .  A
O91         Ni94   1.917       .  S
O91          C96   1.282       .  A
O92         Ni94   1.920       .  S
O92          C95   1.282       .  A
Ni93        Ni94   2.384       .  S
C95         C664   1.483       .  S
C96         C673   1.488       .  S
C97         C880   1.483       .  S
C98         C685   1.486       .  S
O99        Ni107   1.913       .  S
O99         C109   1.280       .  A
O100       Ni107   1.913       .  S
O100        C110   1.282       .  A
O101       Ni107   1.916       .  S
O101        C111   1.282       .  A
O102       Ni107   1.918       .  S
O102        C112   1.282       .  A
O103       Ni108   1.915       .  S
O103        C112   1.281       .  A
O104       Ni108   1.912       .  S
O104        C111   1.280       .  A
O105       Ni108   1.909       .  S
O105        C110   1.279       .  A
O106       Ni108   1.910       .  S
O106        C109   1.281       .  A
Ni107      Ni108   2.385       .  S
C109        C637   1.483       .  S
C110        C688   1.484       .  S
C111        C649   1.484       .  S
C112        C625   1.486       .  S
O113       Ni121   1.920       .  S
O113        C123   1.282       .  A
O114       Ni121   1.924       .  S
O114        C124   1.283       .  A
O115       Ni121   1.910       .  S
O115        C125   1.279       .  A
O116       Ni121   1.910       .  S
O116        C126   1.280       .  A
O117       Ni122   1.913       .  S
O117        C126   1.281       .  A
O118       Ni122   1.915       .  S
O118        C125   1.282       .  A
O119       Ni122   1.915       .  S
O119        C124   1.281       .  A
O120       Ni122   1.915       .  S
O120        C123   1.282       .  A
Ni121      Ni122   2.385       .  S
C123        C808   1.494       .  S
C124        C613   1.486       .  S
C125        C676   1.486       .  S
C126        C601   1.475       .  S
O127       Ni135   1.912       .  S
O127        C137   1.281       .  A
O128       Ni135   1.916       .  S
O128        C138   1.281       .  A
O129       Ni135   1.923       .  S
O129        C139   1.283       .  A
O130       Ni135   1.920       .  S
O130        C140   1.282       .  A
O131       Ni136   1.919       .  S
O131        C140   1.282       .  A
O132       Ni136   1.918       .  S
O132        C139   1.282       .  A
O133       Ni136   1.911       .  S
O133        C138   1.281       .  A
O134       Ni136   1.908       .  S
O134        C137   1.279       .  A
Ni135      Ni136   2.381       .  S
C137        C565   1.482       .  S
C138        C589   1.487       .  S
C139        C577   1.496       .  S
C140        C616   1.497       .  S
O141       Ni149   1.911       .  S
O141        C151   1.281       .  A
O142       Ni149   1.911       .  S
O142        C152   1.279       .  A
O143       Ni149   1.912       .  S
O143        C153   1.281       .  A
O144       Ni149   1.913       .  S
O144        C154   1.281       .  A
O145       Ni150   1.911       .  S
O145        C154   1.280       .  A
O146       Ni150   1.913       .  S
O146        C153   1.281       .  A
O147       Ni150   1.915       .  S
O147        C152   1.283       .  A
O148       Ni150   1.914       .  S
O148        C151   1.281       .  A
Ni149      Ni150   2.387       .  S
C151        C760   1.477       .  S
C152        C652   1.489       .  S
C153        C553   1.482       .  S
C154        C541   1.474       .  S
O155       Ni163   1.919       .  S
O155        C165   1.282       .  A
O156       Ni163   1.919       .  S
O156        C166   1.281       .  A
O157       Ni163   1.910       .  S
O157        C167   1.280       .  A
O158       Ni163   1.912       .  S
O158        C168   1.281       .  A
O159       Ni164   1.915       .  S
O159        C168   1.281       .  A
O160       Ni164   1.914       .  S
O160        C167   1.282       .  A
O161       Ni164   1.906       .  S
O161        C166   1.280       .  A
O162       Ni164   1.909       .  S
O162        C165   1.280       .  A
Ni163      Ni164   2.384       .  S
C165        C529   1.484       .  S
C166        C556   1.490       .  S
C167        C700   1.484       .  S
C168        C592   1.485       .  S
O169       Ni177   1.910       .  S
O169        C179   1.281       .  A
O170       Ni177   1.912       .  S
O170        C180   1.280       .  A
O171       Ni177   1.912       .  S
O171        C181   1.280       .  A
O172       Ni177   1.909       .  S
O172        C182   1.279       .  A
O173       Ni178   1.909       .  S
O173        C182   1.282       .  A
O174       Ni178   1.914       .  S
O174        C181   1.281       .  A
O175       Ni178   1.912       .  S
O175        C180   1.281       .  A
O176       Ni178   1.917       .  S
O176        C179   1.281       .  A
Ni177      Ni178   2.386       .  S
C179        C709   1.479       .  S
C180        C520   1.478       .  S
C181        C493   1.483       .  S
C182        C508   1.486       .  S
O183       Ni191   1.915       .  S
O183        C193   1.281       .  A
O184       Ni191   1.914       .  S
O184        C194   1.282       .  A
O185       Ni191   1.910       .  S
O185        C195   1.280       .  A
O186       Ni191   1.906       .  S
O186        C196   1.279       .  A
O187       Ni192   1.912       .  S
O187        C196   1.281       .  A
O188       Ni192   1.919       .  S
O188        C195   1.282       .  A
O189       Ni192   1.909       .  S
O189        C194   1.279       .  A
O190       Ni192   1.909       .  S
O190        C193   1.280       .  A
Ni191      Ni192   2.383       .  S
C193        C544   1.488       .  S
C194        C517   1.486       .  S
C195        C469   1.487       .  S
C196        C481   1.479       .  S
O197       Ni205   1.916       .  S
O197        C207   1.282       .  A
O198       Ni205   1.915       .  S
O198        C208   1.281       .  A
O199       Ni205   1.907       .  S
O199        C209   1.279       .  A
O200       Ni205   1.907       .  S
O200        C210   1.280       .  A
O201       Ni206   1.912       .  S
O201        C210   1.280       .  A
O202       Ni206   1.913       .  S
O202        C209   1.281       .  A
O203       Ni206   1.903       .  S
O203        C208   1.278       .  A
O204       Ni206   1.903       .  S
O204        C207   1.279       .  A
Ni205      Ni206   2.387       .  S
C207        C568   1.478       .  S
C208        C505   1.474       .  S
C209        C820   1.479       .  S
C210        C457   1.484       .  S
O211       Ni219   1.904       .  S
O211        C221   1.280       .  A
O212       Ni219   1.902       .  S
O212        C222   1.280       .  A
O213       Ni219   1.910       .  S
O213        C223   1.281       .  A
O214       Ni219   1.907       .  S
O214        C224   1.281       .  A
O215       Ni220   1.915       .  S
O215        C224   1.280       .  A
O216       Ni220   1.913       .  S
O216        C223   1.280       .  A
O217       Ni220   1.920       .  S
O217        C222   1.282       .  A
O218       Ni220   1.920       .  S
O218        C221   1.282       .  A
Ni219      Ni220   2.384       .  S
C221        C604   1.487       .  S
C222        C448   1.488       .  S
C223        C433   1.482       .  S
C224        C460   1.482       .  S
O225       Ni233   1.909       .  S
O225        C235   1.281       .  A
O226       Ni233   1.904       .  S
O226        C236   1.279       .  A
O227       Ni233   1.912       .  S
O227        C237   1.280       .  A
O228       Ni233   1.907       .  S
O228        C238   1.281       .  A
O229       Ni234   1.909       .  S
O229        C238   1.280       .  A
O230       Ni234   1.916       .  S
O230        C237   1.282       .  A
O231       Ni234   1.912       .  S
O231        C236   1.280       .  A
O232       Ni234   1.913       .  S
O232        C235   1.280       .  A
Ni233      Ni234   2.388       .  S
C235        C640   1.481       .  S
C236        C421   1.467       .  S
C237        C721   1.480       .  S
C238        C484   1.481       .  S
O239       Ni247   1.919       .  S
O239        C249   1.282       .  A
O240       Ni247   1.918       .  S
O240        C250   1.282       .  A
O241       Ni247   1.921       .  S
O241        C251   1.283       .  A
O242       Ni247   1.922       .  S
O242        C252   1.282       .  A
O243       Ni248   1.902       .  S
O243        C252   1.280       .  A
O244       Ni248   1.896       .  S
O244        C251   1.277       .  A
O245       Ni248   1.907       .  S
O245        C250   1.279       .  A
O246       Ni248   1.908       .  S
O246        C249   1.280       .  A
Ni247      Ni248   2.385       .  S
C249        C868   1.481       .  S
C250        C445   1.475       .  S
C251        C424   1.486       .  S
C252        C409   1.486       .  S
O253       Ni261   1.916       .  S
O253        C263   1.282       .  A
O254       Ni261   1.918       .  S
O254        C264   1.281       .  A
O255       Ni261   1.918       .  S
O255        C265   1.282       .  A
O256       Ni261   1.917       .  S
O256        C266   1.281       .  A
O257       Ni262   1.914       .  S
O257        C266   1.282       .  A
O258       Ni262   1.918       .  S
O258        C265   1.280       .  A
O259       Ni262   1.911       .  S
O259        C264   1.281       .  A
O260       Ni262   1.917       .  S
O260        C263   1.281       .  A
Ni261      Ni262   2.384       .  S
C263        C829   1.490       .  S
C264        C385   1.487       .  S
C265        C580   1.477       .  S
C266        C397   1.490       .  S
O267       Ni275   1.913       .  S
O267        C277   1.281       .  A
O268       Ni275   1.915       .  S
O268        C278   1.282       .  A
O269       Ni275   1.915       .  S
O269        C279   1.282       .  A
O270       Ni275   1.915       .  S
O270        C280   1.282       .  A
O271       Ni276   1.913       .  S
O271        C280   1.280       .  A
O272       Ni276   1.911       .  S
O272        C279   1.280       .  A
O273       Ni276   1.918       .  S
O273        C278   1.281       .  A
O274       Ni276   1.915       .  S
O274        C277   1.281       .  A
Ni275      Ni276   2.384       .  S
C277        C796   1.484       .  S
C278        C376   1.491       .  S
C279        C436   1.484       .  S
C280        C400   1.484       .  S
O281       Ni289   1.907       .  S
O281        C291   1.280       .  A
O282       Ni289   1.904       .  S
O282        C292   1.279       .  A
O283       Ni289   1.912       .  S
O283        C293   1.281       .  A
O284       Ni289   1.913       .  S
O284        C294   1.281       .  A
O285       Ni290   1.912       .  S
O285        C294   1.281       .  A
O286       Ni290   1.916       .  S
O286        C293   1.281       .  A
O287       Ni290   1.921       .  S
O287        C292   1.283       .  A
O288       Ni290   1.922       .  S
O288        C291   1.283       .  A
Ni289      Ni290   2.384       .  S
C291        C532   1.485       .  S
C292        C361   1.488       .  S
C293        C388   1.485       .  S
C294        C496   1.481       .  S
O295       Ni303   1.921       .  S
O295        C305   1.283       .  A
O296       Ni303   1.921       .  S
O296        C306   1.284       .  A
O297       Ni303   1.914       .  S
O297        C307   1.281       .  A
O298       Ni303   1.917       .  S
O298        C308   1.282       .  A
O299       Ni304   1.916       .  S
O299        C308   1.281       .  A
O300       Ni304   1.913       .  S
O300        C307   1.281       .  A
O301       Ni304   1.913       .  S
O301        C306   1.279       .  A
O302       Ni304   1.910       .  S
O302        C305   1.280       .  A
Ni303      Ni304   2.383       .  S
C305        C661   1.490       .  S
C306        C373   1.490       .  S
C307        C412   1.482       .  S
C308        C352   1.492       .  S
O309       Ni317   1.918       .  S
O309        C319   1.282       .  A
O310       Ni317   1.915       .  S
O310        C320   1.282       .  A
O311       Ni317   1.909       .  S
O311        C321   1.279       .  A
O312       Ni317   1.907       .  S
O312        C322   1.279       .  A
O313       Ni318   1.924       .  S
O313        C322   1.283       .  A
O314       Ni318   1.924       .  S
O314        C321   1.284       .  A
O315       Ni318   1.912       .  S
O315        C320   1.280       .  A
O316       Ni318   1.912       .  S
O316        C319   1.280       .  A
Ni317      Ni318   2.384       .  S
C319        C748   1.486       .  S
C320        C364   1.484       .  S
C321        C472   1.488       .  S
C322        C340   1.484       .  S
O323       Ni331   1.913       .  S
O323        C333   1.281       .  A
O324       Ni331   1.910       .  S
O324        C334   1.282       .  A
O325       Ni331   1.914       .  S
O325        C335   1.280       .  A
O326       Ni331   1.912       .  S
O326        C336   1.281       .  A
O327       Ni332   1.923       .  S
O327        C336   1.282       .  A
O328       Ni332   1.922       .  S
O328        C335   1.284       .  A
O329       Ni332   1.921       .  S
O329        C334   1.281       .  A
O330       Ni332   1.920       .  S
O330        C333   1.282       .  A
Ni331      Ni332   2.382       .  S
C333        C628   1.487       .  S
C334        C337   1.493       .  S
C335        C733   1.494       .  S
C336        C349   1.490       .  S
C337        C338   1.406       .  A
C337        C342   1.419       .  A
C338        C339   1.396       .  A
C338        H343   1.084       .  S
C339        C340   1.414       .  A
C339        C346   1.445       .  S
C340        C341   1.405       .  A
C341        C342   1.405       .  A
C341        H344   1.084       .  S
C342        C345   1.444       .  S
C345        N347   1.157       .  T
C346        N348   1.157       .  T
C349        C350   1.405       .  A
C349        C354   1.415       .  A
C350        C351   1.400       .  A
C350        H355   1.084       .  S
C351        C352   1.417       .  A
C351        C358   1.444       .  S
C352        C353   1.408       .  A
C353        C354   1.403       .  A
C353        H356   1.084       .  S
C354        C357   1.444       .  S
C357        N359   1.157       .  T
C358        N360   1.157       .  T
C361        C362   1.407       .  A
C361        C366   1.418   1_455  A
C362        C363   1.402   1_455  A
C362        H367   1.084       .  S
C363        C364   1.415       .  A
C363        C370   1.445       .  S
C364        C365   1.403       .  A
C365        C366   1.397       .  A
C365        H368   1.085       .  S
C366        C369   1.445   1_655  S
C369        N371   1.157       .  T
C370        N372   1.157       .  T
C373        C374   1.405       .  A
C373        C378   1.417       .  A
C374        C375   1.401   1_655  A
C374        H379   1.085       .  S
C375        C376   1.417       .  A
C375        C382   1.444       .  S
C376        C377   1.406   1_455  A
C377        C378   1.401       .  A
C377        H380   1.085   1_655  S
C378        C381   1.445       .  S
C381        N383   1.157       .  T
C382        N384   1.157       .  T
C385        C386   1.406       .  A
C385        C390   1.415       .  A
C386        C387   1.397       .  A
C386        H391   1.084       .  S
C387        C388   1.413       .  A
C387        C394   1.445       .  S
C388        C389   1.406       .  A
C389        C390   1.402       .  A
C389        H392   1.084       .  S
C390        C393   1.445       .  S
C393        N395   1.157       .  T
C394        N396   1.157       .  T
C397        C398   1.407       .  A
C397        C402   1.417       .  A
C398        C399   1.398       .  A
C398        H403   1.084       .  S
C399        C400   1.412       .  A
C399        C406   1.444       .  S
C400        C401   1.406       .  A
C401        C402   1.401       .  A
C401        H404   1.085       .  S
C402        C405   1.445       .  S
C405        N407   1.158       .  T
C406        N408   1.157       .  T
C409        C410   1.407       .  A
C409        C414   1.415       .  A
C410        C411   1.396       .  A
C410        H415   1.085       .  S
C411        C412   1.412       .  A
C411        C418   1.444       .  S
C412        C413   1.406       .  A
C413        C414   1.402       .  A
C413        H416   1.085       .  S
C414        C417   1.444       .  S
C417        N419   1.157       .  T
C418        N420   1.157       .  T
C421        C422   1.397       .  A
C421        C426   1.408       .  A
C422        C423   1.392       .  A
C422        H427   1.085       .  S
C423        C424   1.421   1_554  A
C423        C430   1.445   1_554  S
C424        C425   1.409       .  A
C425        C426   1.401   1_556  A
C425        H428   1.084       .  S
C426        C429   1.444       .  S
C429        N431   1.157       .  T
C430        N432   1.157       .  T
C433        C434   1.405       .  A
C433        C438   1.414       .  A
C434        C435   1.398       .  A
C434        H439   1.085       .  S
C435        C436   1.415       .  A
C435        C442   1.445       .  S
C436        C437   1.406       .  A
C437        C438   1.400       .  A
C437        H440   1.085       .  S
C438        C441   1.445       .  S
C441        N443   1.157       .  T
C442        N444   1.157       .  T
C445        C446   1.404       .  A
C445        C450   1.408       .  A
C446        C447   1.402   1_655  A
C446        H451   1.085       .  S
C447        C448   1.417       .  A
C447        C454   1.444       .  S
C448        C449   1.408       .  A
C449        C450   1.395   1_455  A
C449        H452   1.084       .  S
C450        C453   1.443       .  S
C453        N455   1.157       .  T
C454        N456   1.157       .  T
C457        C458   1.407       .  A
C457        C462   1.415       .  A
C458        C459   1.399   1_565  A
C458        H463   1.084       .  S
C459        C460   1.414       .  A
C459        C466   1.445       .  S
C460        C461   1.404   1_545  A
C461        C462   1.396       .  A
C461        H464   1.085       .  S
C462        C465   1.445       .  S
C465        N467   1.157       .  T
C466        N468   1.157       .  T
C469        C470   1.405       .  A
C469        C474   1.416       .  A
C470        C471   1.400       .  A
C470        H475   1.085       .  S
C471        C472   1.417       .  A
C471        C478   1.445       .  S
C472        C473   1.404       .  A
C473        C474   1.400       .  A
C473        H476   1.085       .  S
C474        C477   1.444       .  S
C477        N479   1.157       .  T
C478        N480   1.157       .  T
C481        C482   1.406       .  A
C481        C486   1.412       .  A
C482        C483   1.398       .  A
C482        H487   1.085       .  S
C483        C484   1.415   1_565  A
C483        C490   1.445       .  S
C484        C485   1.406       .  A
C485        C486   1.395   1_545  A
C485        H488   1.084       .  S
C486        C489   1.444       .  S
C489        N491   1.157       .  T
C490        N492   1.158       .  T
C493        C494   1.405       .  A
C493        C498   1.415       .  A
C494        C495   1.398       .  A
C494        H499   1.084       .  S
C495        C496   1.414       .  A
C495        C502   1.445       .  S
C496        C497   1.405       .  A
C497        C498   1.400       .  A
C497        H500   1.085       .  S
C498        C501   1.445       .  S
C501        N503   1.157       .  T
C502        N504   1.157       .  T
C505        C506   1.401   1_556  A
C505        C510   1.412       .  A
C506        C507   1.399       .  A
C506        H511   1.085   1_554  S
C507        C508   1.419       .  A
C507        C514   1.444       .  S
C508        C509   1.406       .  A
C509        C510   1.395   1_554  A
C509        H512   1.084       .  S
C510        C513   1.446       .  S
C513        N515   1.157       .  T
C514        N516   1.157       .  T
C517        C518   1.406       .  A
C517        C522   1.418       .  A
C518        C519   1.397       .  A
C518        H523   1.088       .  S
C519        C520   1.411   1_655  A
C519        C526   1.444   1_655  S
C520        C521   1.403       .  A
C521        C522   1.398   1_455  A
C521        H524   1.088       .  S
C522        C525   1.445       .  S
C525        N527   1.158       .  T
C526        N528   1.157       .  T
C529        C530   1.407       .  A
C529        C534   1.413       .  A
C530        C531   1.400       .  A
C530        H535   1.084       .  S
C531        C532   1.413       .  A
C531        C538   1.444       .  S
C532        C533   1.407       .  A
C533        C534   1.399       .  A
C533        H536   1.084       .  S
C534        C537   1.445       .  S
C537        N539   1.157       .  T
C538        N540   1.157       .  T
C541        C542   1.402       .  A
C541        C546   1.409       .  A
C542        C543   1.399       .  A
C542        H547   1.085       .  S
C543        C544   1.418       .  A
C543        C550   1.444       .  S
C544        C545   1.409       .  A
C545        C546   1.398       .  A
C545        H548   1.084       .  S
C546        C549   1.445       .  S
C549        N551   1.157       .  T
C550        N552   1.157       .  T
C553        C554   1.405       .  A
C553        C558   1.413       .  A
C554        C555   1.402       .  A
C554        H559   1.085       .  S
C555        C556   1.418       .  A
C555        C562   1.444       .  S
C556        C557   1.407       .  A
C557        C558   1.397       .  A
C557        H560   1.084       .  S
C558        C561   1.445       .  S
C561        N563   1.157       .  T
C562        N564   1.157       .  T
C565        C566   1.405       .  A
C565        C570   1.416       .  A
C566        C567   1.396       .  A
C566        H571   1.084       .  S
C567        C568   1.413       .  A
C567        C574   1.445       .  S
C568        C569   1.403       .  A
C569        C570   1.398       .  A
C569        H572   1.085       .  S
C570        C573   1.445       .  S
C573        N575   1.157       .  T
C574        N576   1.157       .  T
C577        C578   1.411       .  A
C577        C582   1.420       .  A
C578        C579   1.405       .  A
C578        H583   1.084       .  S
C579        C580   1.409       .  A
C579        C586   1.445       .  S
C580        C581   1.399       .  A
C581        C582   1.399       .  A
C581        H584   1.085       .  S
C582        C585   1.444       .  S
C585        N587   1.157       .  T
C586        N588   1.157       .  T
C589        C590   1.407       .  A
C589        C594   1.415       .  A
C590        C591   1.399       .  A
C590        H595   1.084       .  S
C591        C592   1.413       .  A
C591        C598   1.444       .  S
C592        C593   1.406       .  A
C593        C594   1.400       .  A
C593        H596   1.084       .  S
C594        C597   1.445       .  S
C597        N599   1.157       .  T
C598        N600   1.157       .  T
C601        C602   1.404       .  A
C601        C606   1.409       .  A
C602        C603   1.400       .  A
C602        H607   1.085       .  S
C603        C604   1.417       .  A
C603        C610   1.444       .  S
C604        C605   1.409       .  A
C605        C606   1.397       .  A
C605        H608   1.084       .  S
C606        C609   1.445       .  S
C609        N611   1.157       .  T
C610        N612   1.157       .  T
C613        C614   1.404       .  A
C613        C618   1.411   1_545  A
C614        C615   1.402   1_545  A
C614        H619   1.085       .  S
C615        C616   1.419       .  A
C615        C622   1.444       .  S
C616        C617   1.410       .  A
C617        C618   1.403       .  A
C617        H620   1.084       .  S
C618        C621   1.444       .  S
C621        N623   1.157       .  T
C622        N624   1.157       .  T
C625        C626   1.405       .  A
C625        C630   1.414       .  A
C626        C627   1.401       .  A
C626        H631   1.085       .  S
C627        C628   1.415       .  A
C627        C634   1.444       .  S
C628        C629   1.406       .  A
C629        C630   1.400       .  A
C629        H632   1.085       .  S
C630        C633   1.444       .  S
C633        N635   1.157       .  T
C634        N636   1.157       .  T
C637        C638   1.406       .  A
C637        C642   1.415       .  A
C638        C639   1.398       .  A
C638        H643   1.084       .  S
C639        C640   1.413       .  A
C639        C646   1.445       .  S
C640        C641   1.405       .  A
C641        C642   1.398       .  A
C641        H644   1.085       .  S
C642        C645   1.445       .  S
C645        N647   1.157       .  T
C646        N648   1.157       .  T
C649        C650   1.405   1_545  A
C649        C654   1.414       .  A
C650        C651   1.401       .  A
C650        H655   1.085       .  S
C651        C652   1.419       .  A
C651        C658   1.445       .  S
C652        C653   1.406       .  A
C653        C654   1.397   1_565  A
C653        H656   1.084       .  S
C654        C657   1.445       .  S
C657        N659   1.157       .  T
C658        N660   1.158       .  T
C661        C662   1.408       .  A
C661        C666   1.418       .  A
C662        C663   1.402       .  A
C662        H667   1.085       .  S
C663        C664   1.413       .  A
C663        C670   1.444       .  S
C664        C665   1.403       .  A
C665        C666   1.398       .  A
C665        H668   1.085       .  S
C666        C669   1.445       .  S
C669        N671   1.157       .  T
C670        N672   1.157       .  T
C673        C674   1.407       .  A
C673        C678   1.417       .  A
C674        C675   1.400       .  A
C674        H679   1.084       .  S
C675        C676   1.416       .  A
C675        C682   1.445       .  S
C676        C677   1.404       .  A
C677        C678   1.398       .  A
C677        H680   1.085       .  S
C678        C681   1.445       .  S
C681        N683   1.157       .  T
C682        N684   1.157       .  T
C685        C686   1.406       .  A
C685        C690   1.416       .  A
C686        C687   1.397       .  A
C686        H691   1.085       .  S
C687        C688   1.415       .  A
C687        C694   1.445       .  S
C688        C689   1.405       .  A
C689        C690   1.399       .  A
C689        H692   1.085       .  S
C690        C693   1.444       .  S
C693        N695   1.157       .  T
C694        N696   1.157       .  T
C697        C698   1.404       .  A
C697        C702   1.414       .  A
C698        C699   1.400       .  A
C698        H703   1.084       .  S
C699        C700   1.416       .  A
C699        C706   1.445       .  S
C700        C701   1.405       .  A
C701        C702   1.398       .  A
C701        H704   1.084       .  S
C702        C705   1.445       .  S
C705        N707   1.157       .  T
C706        N708   1.157       .  T
C709        C710   1.403       .  A
C709        C714   1.411       .  A
C710        C711   1.402       .  A
C710        H715   1.085       .  S
C711        C712   1.418       .  A
C711        C718   1.444       .  S
C712        C713   1.407       .  A
C713        C714   1.397       .  A
C713        H716   1.084       .  S
C714        C717   1.446       .  S
C717        N719   1.157       .  T
C718        N720   1.157       .  T
C721        C722   1.401       .  A
C721        C726   1.413       .  A
C722        C723   1.397       .  A
C722        H727   1.086       .  S
C723        C724   1.418       .  A
C723        C730   1.445       .  S
C724        C725   1.406       .  A
C725        C726   1.401       .  A
C725        H728   1.085       .  S
C726        C729   1.444       .  S
C729        N731   1.157       .  T
C730        N732   1.157       .  T
C733        C734   1.407       .  A
C733        C738   1.420       .  A
C734        C735   1.401       .  A
C734        H739   1.085       .  S
C735        C736   1.414       .  A
C735        C742   1.445       .  S
C736        C737   1.402       .  A
C737        C738   1.402       .  A
C737        H740   1.085       .  S
C738        C741   1.444       .  S
C741        N743   1.157       .  T
C742        N744   1.157       .  T
C745        C746   1.404       .  A
C745        C750   1.417       .  A
C746        C747   1.400       .  A
C746        H751   1.084       .  S
C747        C748   1.416       .  A
C747        C754   1.444       .  S
C748        C749   1.405       .  A
C749        C750   1.401       .  A
C749        H752   1.084       .  S
C750        C753   1.445       .  S
C753        N755   1.157       .  T
C754        N756   1.157       .  T
C757        C758   1.408       .  A
C757        C762   1.417       .  A
C758        C759   1.398       .  A
C758        H763   1.084       .  S
C759        C760   1.411       .  A
C759        C766   1.445       .  S
C760        C761   1.403       .  A
C761        C762   1.399       .  A
C761        H764   1.085       .  S
C762        C765   1.444       .  S
C765        N767   1.157       .  T
C766        N768   1.157       .  T
C769        C770   1.405       .  A
C769        C774   1.414       .  A
C770        C771   1.401       .  A
C770        H775   1.084       .  S
C771        C772   1.418       .  A
C771        C778   1.444       .  S
C772        C773   1.407       .  A
C773        C774   1.401       .  A
C773        H776   1.084       .  S
C774        C777   1.445       .  S
C777        N779   1.157       .  T
C778        N780   1.157       .  T
C781        C782   1.408       .  A
C781        C786   1.414       .  A
C782        C783   1.402       .  A
C782        H787   1.084       .  S
C783        C784   1.413       .  A
C783        C790   1.444       .  S
C784        C785   1.407       .  A
C785        C786   1.399       .  A
C785        H788   1.084       .  S
C786        C789   1.445       .  S
C789        N791   1.157       .  T
C790        N792   1.157       .  T
C793        C794   1.405       .  A
C793        C798   1.413       .  A
C794        C795   1.399       .  A
C794        H799   1.085       .  S
C795        C796   1.414       .  A
C795        C802   1.444       .  S
C796        C797   1.406       .  A
C797        C798   1.399       .  A
C797        H800   1.085       .  S
C798        C801   1.445       .  S
C801        N803   1.157       .  T
C802        N804   1.157       .  T
C805        C806   1.402       .  A
C805        C810   1.411       .  A
C806        C807   1.401       .  A
C806        H811   1.085       .  S
C807        C808   1.419       .  A
C807        C814   1.444       .  S
C808        C809   1.409       .  A
C809        C810   1.401       .  A
C809        H812   1.084       .  S
C810        C813   1.445       .  S
C813        N815   1.157       .  T
C814        N816   1.157       .  T
C817        C818   1.404       .  A
C817        C822   1.415       .  A
C818        C819   1.397       .  A
C818        H823   1.085       .  S
C819        C820   1.415       .  A
C819        C826   1.445       .  S
C820        C821   1.403       .  A
C821        C822   1.397       .  A
C821        H824   1.085       .  S
C822        C825   1.445       .  S
C825        N827   1.157       .  T
C826        N828   1.157       .  T
C829        C830   1.407       .  A
C829        C834   1.417       .  A
C830        C831   1.400       .  A
C830        H835   1.085       .  S
C831        C832   1.414       .  A
C831        C838   1.444       .  S
C832        C833   1.404       .  A
C833        C834   1.401       .  A
C833        H836   1.085       .  S
C834        C837   1.444       .  S
C837        N839   1.157       .  T
C838        N840   1.157       .  T
C841        C842   1.405   1_556  A
C841        C846   1.416       .  A
C842        C843   1.402       .  A
C842        H847   1.084   1_554  S
C843        C844   1.417       .  A
C843        C850   1.445       .  S
C844        C845   1.404       .  A
C845        C846   1.397   1_554  A
C845        H848   1.085       .  S
C846        C849   1.445       .  S
C849        N851   1.157       .  T
C850        N852   1.157       .  T
C853        C854   1.405       .  A
C853        C858   1.416       .  A
C854        C855   1.396       .  A
C854        H859   1.085       .  S
C855        C856   1.415       .  A
C855        C862   1.444       .  S
C856        C857   1.406       .  A
C857        C858   1.401       .  A
C857        H860   1.085       .  S
C858        C861   1.444       .  S
C861        N863   1.157       .  T
C862        N864   1.157       .  T
C865        C866   1.406       .  A
C865        C870   1.418       .  A
C866        C867   1.395       .  A
C866        H871   1.084       .  S
C867        C868   1.413       .  A
C867        C874   1.445       .  S
C868        C869   1.404       .  A
C869        C870   1.403       .  A
C869        H872   1.085       .  S
C870        C873   1.444       .  S
C873        N875   1.158       .  T
C874        N876   1.157       .  T
C877        C878   1.406       .  A
C877        C882   1.416       .  A
C878        C879   1.398       .  A
C878        H883   1.085       .  S
C879        C880   1.414       .  A
C879        C886   1.445       .  S
C880        C881   1.405       .  A
C881        C882   1.401       .  A
C881        H884   1.085       .  S
C882        C885   1.444       .  S
C885        N887   1.157       .  T
C886        N888   1.157       .  T
C889        C890   1.403       .  A
C889        C894   1.413   1_556  A
C890        C891   1.398   1_556  A
C890        H895   1.085       .  S
C891        C892   1.420       .  A
C891        C898   1.445       .  S
C892        C893   1.409       .  A
C893        C894   1.403       .  A
C893        H896   1.084       .  S
C894        C897   1.444   1_554  S
C897        N899   1.157       .  T
C898        N900   1.157       .  T
C901        C902   1.405       .  A
C901        C906   1.416       .  A
C902        C903   1.398       .  A
C902        H907   1.084       .  S
C903        C904   1.416       .  A
C903        C910   1.444       .  S
C904        C905   1.406       .  A
C905        C906   1.399       .  A
C905        H908   1.084       .  S
C906        C909   1.445       .  S
C909        N911   1.157       .  T
C910        N912   1.157       .  T
