geometry optimzed in LAMMPS
_audit_creation_date              2020-11-30 
_audit_creation_method            'lammps2cif' 
_symmetry_space_group_name_H-M    'P1' 
_symmetry_Int_Tables_number       1 
_symmetry_cell_setting            triclinic 
loop_ 
_symmetry_equiv_pos_as_xyz 
  x,y,z 
_cell_length_a                    32.090286554518826 
_cell_length_b                    32.107955917795785 
_cell_length_c                    31.994766059076913 
_cell_angle_alpha                 90.0424426671918 
_cell_angle_beta                  90.233889651998 
_cell_angle_gamma                 90.12309437662611 
loop_ 
_atom_site_label 
_atom_site_type_symbol 
_atom_site_fract_x 
_atom_site_fract_y 
_atom_site_fract_z 
_atom_site_charge 
O1          O  0.44377443  0.09081192  0.22836600    -0.70570
O2          O  0.05513572  0.08178015  0.27715076    -0.70600
O3          O  0.47941596  0.08913945  0.30514969    -0.70650
O4          O  0.01735623  0.06791297  0.20234167    -0.70700
O5          O  0.02319378  0.13567707  0.18833844    -0.70630
O6          O  0.47901777  0.15852895  0.30642589    -0.70610
O7          O  0.05667436  0.15007145  0.26535785    -0.70590
O8          O  0.44583845  0.16019588  0.22880902    -0.70650
Ni9        Ni  0.50021820  0.08725961  0.25018090     1.25410
Ni10       Ni  0.00219391  0.15058687  0.24425432     1.25360
C11         C  0.42647480  0.12630054  0.22151242     0.91610
C12         C  0.07416296  0.11729860  0.27883761     0.91550
C13         C  0.47208245  0.12319977  0.32414705     0.91570
C14         C  0.02667141  0.09696024  0.17747519     0.91740
C15         C  0.42445598  0.07511274  0.42543671     0.01370
O16         O  0.22851439  0.05604355  0.40930315    -0.70570
O17         O  0.27168359  0.44434883  0.40792050    -0.70600
O18         O  0.30461359  0.02016379  0.41118915    -0.70650
O19         O  0.19547237  0.48028555  0.41045471    -0.70700
O20         O  0.19310217  0.47971728  0.34082357    -0.70630
O21         O  0.30590506  0.02034765  0.34154319    -0.70610
O22         O  0.27013657  0.44595479  0.33828641    -0.70590
O23         O  0.22914165  0.05394791  0.33967183    -0.70650
Ni24       Ni  0.25050787  0.50078749  0.41165028     1.25410
Ni25       Ni  0.24962229  0.50092892  0.33702098     1.25360
C26         C  0.22192855  0.07329878  0.37363085     0.91610
C27         C  0.27794273  0.42684605  0.37231216     0.91550
C28         C  0.32356892  0.02736829  0.37701308     0.91570
C29         C  0.17585892  0.47322490  0.37646776     0.91740
O30         O  0.22841873  0.44430173  0.09024965    -0.70570
O31         O  0.27235219  0.05711918  0.08991937    -0.70600
O32         O  0.30497913  0.47966308  0.08848476    -0.70650
O33         O  0.19561721  0.02243270  0.08790508    -0.70700
O34         O  0.19403718  0.02434538  0.15751113    -0.70630
O35         O  0.30678678  0.47877871  0.15812712    -0.70610
O36         O  0.27180912  0.05582444  0.15956311    -0.70590
O37         O  0.22946545  0.44571584  0.15990241    -0.70650
Ni38       Ni  0.25017280  0.50061311  0.08695042     1.25410
Ni39       Ni  0.24989140  0.00146092  0.16137947     1.25360
C40         C  0.22182077  0.42672697  0.12574385     0.91610
C41         C  0.27928957  0.07472693  0.12540603     0.91550
C42         C  0.32413828  0.47204628  0.12258654     0.91570
C43         C  0.17682779  0.03120518  0.12178467     0.91740
C44         C  0.32600814  0.17558047  0.17438376     0.01370
O45         O  0.34088956  0.19403170  0.47758569    -0.70570
O46         O  0.34140838  0.30504119  0.02056326    -0.70600
O47         O  0.33912402  0.27115467  0.44405329    -0.70650
O48         O  0.34099865  0.22790368  0.05381501    -0.70700
O49         O  0.41041961  0.22790884  0.05523064    -0.70630
O50         O  0.40855344  0.27191616  0.44255959    -0.70610
O51         O  0.41083548  0.30449326  0.02001273    -0.70590
O52         O  0.41033180  0.19565106  0.47846005    -0.70650
Ni53       Ni  0.33763071  0.25038795  0.49909346     1.25410
Ni54       Ni  0.41204145  0.25054821  0.49914157     1.25360
C55         C  0.37627223  0.17650692  0.47105625     0.91610
C56         C  0.37663159  0.32309038  0.02743134     0.91550
C57         C  0.37309837  0.27865146  0.42496443     0.91570
C58         C  0.37512927  0.22099421  0.07297215     0.91740
C59         C  0.32440582  0.32569799  0.32377980     0.01370
C60         C  0.42478358  0.42458154  0.07425074     0.01370
O61         O  0.05708116  0.40980236  0.22857511    -0.70570
O62         O  0.44408134  0.40901480  0.27133002    -0.70600
O63         O  0.02166254  0.41214516  0.30520405    -0.70650
O64         O  0.47991031  0.41039438  0.19489567    -0.70700
O65         O  0.47874206  0.34100924  0.19363601    -0.70630
O66         O  0.02231194  0.34277279  0.30720412    -0.70610
O67         O  0.44525578  0.33962109  0.27092964    -0.70590
O68         O  0.05534842  0.34042120  0.22958305    -0.70650
Ni69       Ni  0.50063346  0.41213012  0.25008723     1.25410
Ni70       Ni  0.50021450  0.33778376  0.25044494     1.25360
C71         C  0.07443988  0.37433907  0.22179814     0.91610
C72         C  0.42626569  0.37369155  0.27800110     0.91550
C73         C  0.02889590  0.37834639  0.32465368     0.91570
C74         C  0.47218531  0.37637006  0.17585528     0.91740
C75         C  0.17449887  0.17236722  0.32322684     0.01370
C76         C  0.07449348  0.42848386  0.42589279     0.01370
C77         C  0.17481607  0.32564629  0.17375344     0.01370
C78         C  0.07930245  0.08139936  0.06961449     0.01370
O79         O  0.09272953  0.23064146  0.44053854    -0.70570
O80         O  0.09246802  0.27298012  0.05338029    -0.70600
O81         O  0.08980716  0.30700172  0.47675695    -0.70650
O82         O  0.09310042  0.19707504  0.01707235    -0.70700
O83         O  0.16263013  0.19831110  0.01845240    -0.70630
O84         O  0.15922299  0.30989517  0.47519535    -0.70610
O85         O  0.16188359  0.27520262  0.05143552    -0.70590
O86         O  0.16217688  0.23247875  0.44167839    -0.70650
Ni87       Ni  0.08965339  0.25177518  0.49703640     1.25410
Ni88       Ni  0.16371465  0.25419408  0.99633797     1.25360
C89         C  0.12798457  0.22399189  0.42292089     0.91610
C90         C  0.12773021  0.28081317  0.07090008     0.91550
C91         C  0.12346332  0.32684591  0.46937664     0.91570
C92         C  0.12789602  0.17961666  0.02500106     0.91740
C93         C  0.50332073  0.99497313  0.99824218     0.01370
C94         C  0.24910985  0.24943539  0.24888584     0.01370
C95         C  0.09237452  0.11435586  0.03880446    -0.12570
C96         C  0.12658595  0.13824022  0.04412807    -0.27750
H97         H  0.06935207  0.12367679  0.01551526     0.16450
H98         H  0.15059856  0.12997429  0.06662609     0.17030
C99         C  0.04828565  0.05407846  0.04826291    -0.09410
C100        C  0.02559903  0.03120427  0.02821552    -0.10970
C101        C  0.16715636  0.30241443  0.13304049    -0.12570
C102        C  0.12979541  0.29741014  0.11384326    -0.27750
H103        H  0.19516263  0.29214921  0.11701067     0.16450
H104        H  0.10105471  0.30746360  0.12841158     0.17030
C105        C  0.20117520  0.29862913  0.20054087    -0.09410
C106        C  0.22273291  0.27625957  0.22220867    -0.10970
C107        C  0.08285077  0.38845920  0.44973309    -0.12570
C108        C  0.12037685  0.36954271  0.45301469    -0.27750
H109        H  0.05530465  0.37234402  0.46117480     0.16450
H110        H  0.14859212  0.38411392  0.44145498     0.17030
C111        C  0.02685284  0.47757738  0.47472239    -0.09410
C112        C  0.04818039  0.45547010  0.45265636    -0.10970
C113        C  0.16716475  0.19725403  0.36297729    -0.12570
C114        C  0.12988004  0.20489161  0.38096297    -0.27750
H115        H  0.19536371  0.20756191  0.37895531     0.16450
H116        H  0.10095595  0.19494795  0.36635959     0.17030
C117        C  0.20015229  0.19922749  0.29541667    -0.09410
C118        C  0.22216117  0.22190761  0.27444756    -0.10970
C119        C  0.11664556  0.37149871  0.20378035    -0.12570
C120        C  0.13430796  0.33371318  0.19698048    -0.27750
H121        H  0.13192174  0.40011955  0.19429561     0.16450
H122        H  0.11753357  0.30582754  0.20649556     0.17030
C123        C  0.04597071  0.38161167  0.36742047    -0.12570
C124        C  0.05073146  0.41958135  0.38563595    -0.27750
H125        H  0.05669683  0.35334765  0.38253866     0.16450
H126        H  0.03998952  0.44710702  0.36900184     0.17030
C127        C  0.44841362  0.41662463  0.11485973    -0.12570
C128        C  0.45442751  0.37896927  0.13322995    -0.27750
H129        H  0.45858231  0.44454702  0.13130259     0.16450
H130        H  0.44431250  0.35032441  0.11828660     0.17030
C131        C  0.45143044  0.45118159  0.04725565    -0.09410
C132        C  0.47325740  0.47268842  0.02497246    -0.10970
C133        C  0.36473720  0.33365459  0.30010426    -0.12570
C134        C  0.38360918  0.37121275  0.29507075    -0.27750
H135        H  0.38080158  0.30576986  0.28958298     0.16450
H136        H  0.36906767  0.39980125  0.30560540     0.17030
C137        C  0.29732799  0.29863242  0.29745960    -0.09410
C138        C  0.27528149  0.27618085  0.27615504    -0.10970
C139        C  0.37897139  0.36556981  0.04506713    -0.12570
C140        C  0.41661851  0.38412808  0.05082589    -0.27750
H141        H  0.35032813  0.38025070  0.05521648     0.16450
H142        H  0.44453163  0.36792288  0.04063278     0.17030
C143        C  0.37038750  0.29628677  0.38246858    -0.12570
C144        C  0.33262549  0.30245767  0.36435059    -0.27750
H145        H  0.39899700  0.30608483  0.36740977     0.16450
H146        H  0.30476905  0.29258204  0.38092989     0.17030
C147        C  0.33470573  0.19902336  0.13407628    -0.12570
C148        C  0.37250356  0.20392622  0.11574674    -0.27750
H149        H  0.30699853  0.20963381  0.11755460     0.16450
H150        H  0.40094602  0.19338555  0.13077036     0.17030
C151        C  0.29904452  0.20226322  0.20079205    -0.09410
C152        C  0.27647257  0.22363576  0.22231759    -0.10970
C153        C  0.19852134  0.36595232  0.16600975    -0.12570
C154        C  0.20417895  0.38436899  0.12828134    -0.27750
H155        H  0.20884740  0.38218816  0.19407253     0.16510
H156        H  0.19386086  0.36965643  0.09950502     0.17030
C157        C  0.36642801  0.45427096  0.11995338    -0.12570
C158        C  0.38443034  0.44803688  0.08217341    -0.27750
H159        H  0.38145330  0.44439602  0.14870454     0.16450
H160        H  0.36790076  0.45794088  0.05414439     0.17030
C161        C  0.13555271  0.05122134  0.11838714    -0.12570
C162        C  0.11676726  0.05444031  0.08049192    -0.27750
H163        H  0.12283266  0.06603220  0.14595859     0.16450
H164        H  0.13084698  0.03882637  0.05387138     0.17030
C165        C  0.29701528  0.11706318  0.12805549    -0.12570
C166        C  0.30229773  0.13544732  0.16589039    -0.27750
H167        H  0.30760624  0.13177571  0.09948354     0.16450
H168        H  0.29160720  0.11923543  0.19372731     0.17030
C169        C  0.30110682  0.36616065  0.33173654    -0.12570
C170        C  0.29541439  0.38444628  0.36953732    -0.27750
H171        H  0.29095300  0.38253861  0.30374521     0.16450
H172        H  0.30556213  0.36956376  0.39824188     0.17030
C173        C  0.13312042  0.45644809  0.37940014    -0.12570
C174        C  0.11478748  0.45195929  0.41727245    -0.27750
H175        H  0.11807455  0.44570317  0.35093710     0.16450
H176        H  0.13134306  0.46272787  0.44500724     0.17030
C177        C  0.19936293  0.13331632  0.33234749    -0.12570
C178        C  0.20455610  0.11559571  0.37046506    -0.27750
H179        H  0.21020125  0.11680146  0.30475677     0.16450
H180        H  0.19353462  0.13051278  0.39876390     0.17030
C181        C  0.41643388  0.11559218  0.44865807    -0.12570
C182        C  0.37880031  0.13399897  0.45381065    -0.27750
H183        H  0.44432398  0.13193704  0.45912555     0.16450
H184        H  0.35018916  0.11914949  0.44340072     0.17030
C185        C  0.38406427  0.05161684  0.41732740    -0.12570
C186        C  0.36597144  0.04507286  0.37952173    -0.27750
H187        H  0.36756898  0.04191274  0.44534232     0.16450
H188        H  0.38094671  0.05470946  0.35076221     0.17030
C189        C  0.45065966  0.04846728  0.45281568    -0.09410
C190        C  0.47174924  0.02651512  0.47540083    -0.10970
C191        C  0.36604107  0.16712494  0.19844163    -0.12570
C192        C  0.38402652  0.12927289  0.20393757    -0.27750
H193        H  0.38255957  0.19483399  0.20905090     0.16450
H194        H  0.36897982  0.10083934  0.19340063     0.17030
C195        C  0.11638298  0.12244245  0.29737959    -0.12570
C196        C  0.13378743  0.16122288  0.30079730    -0.27750
H197        H  0.13182847  0.09513058  0.30992168     0.16450
H198        H  0.11657126  0.18787052  0.28892083     0.17030
C199        C  0.05994450  0.10365645  0.10707078    -0.12570
C200        C  0.04154446  0.08157670  0.13692551    -0.27750
H201        H  0.06200848  0.13733422  0.11022653     0.16450
H202        H  0.04003610  0.04795094  0.13270126     0.17030
C203        C  0.44815612  0.08299520  0.38501963    -0.12570
C204        C  0.45435364  0.12064756  0.36665213    -0.27750
H205        H  0.45818912  0.05504900  0.36869894     0.16450
H206        H  0.44441745  0.14932070  0.38149457     0.17030
O207        O  0.44323436  0.09168321  0.72884385    -0.70570
O208        O  0.05563350  0.08251468  0.77662968    -0.70600
O209        O  0.47929707  0.08935408  0.80536678    -0.70650
O210        O  0.01735868  0.06860748  0.70200284    -0.70700
O211        O  0.02347898  0.13632297  0.68793409    -0.70630
O212        O  0.47857528  0.15872023  0.80763992    -0.70610
O213        O  0.05721246  0.15078446  0.76482065    -0.70590
O214        O  0.44482290  0.16107235  0.73022268    -0.70650
Ni215      Ni  0.49973610  0.08827013  0.75035881     1.25410
Ni216      Ni  0.00269766  0.15137124  0.74397205     1.25360
C217        C  0.42573771  0.12712502  0.72236818     0.91610
C218        C  0.07473116  0.11803620  0.77824598     0.91550
C219        C  0.47205469  0.12312209  0.82491216     0.91570
C220        C  0.02675310  0.09756367  0.67709317     0.91740
C221        C  0.42714983  0.07289075  0.92612223     0.01370
O222        O  0.22870406  0.05918871  0.91069933    -0.70570
O223        O  0.27114643  0.44667828  0.91375457    -0.70600
O224        O  0.30477490  0.02299983  0.91370776    -0.70650
O225        O  0.19446676  0.48186606  0.91359625    -0.70700
O226        O  0.19325295  0.48038869  0.84391971    -0.70630
O227        O  0.30635896  0.02089164  0.84407336    -0.70610
O228        O  0.26959835  0.44611733  0.84402654    -0.70590
O229        O  0.23016267  0.05585110  0.84111355    -0.70650
Ni230      Ni  0.24954453  0.50284031  0.91545019     1.25410
Ni231      Ni  0.24974725  0.50109394  0.84078195     1.25360
C232        C  0.22261055  0.07579424  0.87465561     0.91610
C233        C  0.27716328  0.42813201  0.87872400     0.91550
C234        C  0.32408876  0.02845464  0.87938261     0.91570
C235        C  0.17547641  0.47428783  0.87929223     0.91740
O236        O  0.22856691  0.44372986  0.59027787    -0.70570
O237        O  0.27281481  0.05649567  0.59097194    -0.70600
O238        O  0.30554871  0.47822775  0.58965927    -0.70650
O239        O  0.19603981  0.02185740  0.58878141    -0.70700
O240        O  0.19425514  0.02435717  0.65835370    -0.70630
O241        O  0.30611448  0.47720147  0.65929355    -0.70610
O242        O  0.27217830  0.05563292  0.66061856    -0.70590
O243        O  0.22809139  0.44567815  0.65991747    -0.70650
Ni244      Ni  0.25091045  0.49975274  0.58714873     1.25410
Ni245      Ni  0.25013608  0.00132491  0.66269807     1.25360
C246        C  0.22113845  0.42648077  0.62574121     0.91610
C247        C  0.27959957  0.07436727  0.62636277     0.91550
C248        C  0.32410543  0.47038360  0.62406634     0.91570
C249        C  0.17711528  0.03091778  0.62250330     0.91740
C250        C  0.32536272  0.17602358  0.67461938     0.01370
O251        O  0.34310475  0.19211169  0.97739460    -0.70570
O252        O  0.34098257  0.30672437  0.52065648    -0.70600
O253        O  0.33957359  0.26946388  0.94404085    -0.70650
O254        O  0.33948703  0.22968740  0.55414579    -0.70700
O255        O  0.40892621  0.22923733  0.55576243    -0.70630
O256        O  0.40891093  0.27228358  0.94225159    -0.70610
O257        O  0.41042036  0.30539216  0.51980524    -0.70590
O258        O  0.41250344  0.19497985  0.97741429    -0.70650
Ni259      Ni  0.33882054  0.24853285  0.99890430     1.25410
Ni260      Ni  0.41317799  0.24989465  0.99865863     1.25360
C261        C  0.37874315  0.17507069  0.97069416     0.91610
C262        C  0.37642030  0.32434385  0.52728789     0.91550
C263        C  0.37313445  0.27872419  0.92506654     0.91570
C264        C  0.37358311  0.22247766  0.57334670     0.91740
C265        C  0.31914235  0.32953618  0.82837015     0.01370
C266        C  0.42559767  0.42362020  0.57612484     0.01370
O267        O  0.05685619  0.40988009  0.72824732    -0.70570
O268        O  0.43754373  0.38450587  0.77210847    -0.70600
O269        O  0.02162933  0.41202298  0.80481134    -0.70650
O270        O  0.47378794  0.39961065  0.69692946    -0.70700
O271        O  0.48297339  0.33133493  0.68948129    -0.70630
O272        O  0.02187723  0.34264340  0.80663726    -0.70610
O273        O  0.45151644  0.31679052  0.76624418    -0.70590
O274        O  0.05484016  0.34049460  0.72904367    -0.70650
Ni275      Ni  0.49367605  0.39954364  0.75183891     1.25410
Ni276      Ni  0.50498664  0.32639305  0.74671295     1.25360
C277        C  0.07408633  0.37436742  0.72145406     0.91610
C278        C  0.42656945  0.34575236  0.77524880     0.91550
C279        C  0.02869696  0.37813178  0.82414847     0.91570
C280        C  0.47172852  0.36705190  0.67457182     0.91740
C281        C  0.17480171  0.17376160  0.82272925     0.01370
C282        C  0.07352804  0.42823441  0.92566785     0.01370
C283        C  0.17458612  0.32560798  0.67401472     0.01370
C284        C  0.07970526  0.08099037  0.56952268     0.01370
O285        O  0.09221021  0.23077094  0.94020515    -0.70570
O286        O  0.09262975  0.27274921  0.55366571    -0.70600
O287        O  0.08931112  0.30704669  0.97643272    -0.70650
O288        O  0.09340201  0.19683222  0.51733909    -0.70700
O289        O  0.16293298  0.19811206  0.51892764    -0.70630
O290        O  0.15872045  0.31009248  0.97473874    -0.70610
O291        O  0.16205316  0.27498134  0.55190337    -0.70590
O292        O  0.16164670  0.23276606  0.94123374    -0.70650
Ni293      Ni  0.08928513  0.25192766  0.99674633     1.25410
Ni294      Ni  0.16408829  0.25397621  0.49680546     1.25360
C295        C  0.12745037  0.22430354  0.92248100     0.91610
C296        C  0.12783588  0.28055427  0.57127902     0.91550
C297        C  0.12290271  0.32693669  0.96897877     0.91570
C298        C  0.12819870  0.17938492  0.52535292     0.91740
C299        C  0.49856084  0.00008236  0.50210957     0.01370
C300        C  0.25006870  0.25111058  0.74929774     0.01370
C301        C  0.09308204  0.11375441  0.53860335    -0.12570
C302        C  0.12693572  0.13800168  0.54447848    -0.27750
H303        H  0.07055201  0.12261313  0.51465480     0.16450
H304        H  0.15052793  0.13008110  0.56754583     0.17030
C305        C  0.04851257  0.05373279  0.54821352    -0.09410
C306        C  0.02552173  0.03101550  0.52827554    -0.10970
C307        C  0.16704591  0.30209957  0.63348769    -0.12570
C308        C  0.12974809  0.29711053  0.61421477    -0.27750
H309        H  0.19509443  0.29178933  0.61755720     0.16450
H310        H  0.10097776  0.30724464  0.62867079     0.17030
C311        C  0.20121692  0.29904559  0.70084474    -0.09410
C312        C  0.22331438  0.27727276  0.72249262    -0.10970
C313        C  0.08198441  0.38830612  0.94952031    -0.12570
C314        C  0.11961166  0.36957013  0.95264357    -0.27750
H315        H  0.05449953  0.37201062  0.96085747     0.16450
H316        H  0.14773170  0.38425735  0.94099467     0.17030
C317        C  0.02412763  0.47660517  0.97303656    -0.09410
C318        C  0.04606268  0.45463617  0.95158549    -0.10970
C319        C  0.16684379  0.19869898  0.86229621    -0.12570
C320        C  0.12944784  0.20547712  0.88038914    -0.27750
H321        H  0.19484712  0.20955517  0.87826480     0.16450
H322        H  0.10069582  0.19495922  0.86584275     0.17030
C323        C  0.20078806  0.20078016  0.79537394    -0.09410
C324        C  0.22318484  0.22367984  0.77505074    -0.10970
C325        C  0.11633506  0.37144778  0.70366458    -0.12570
C326        C  0.13410297  0.33365382  0.69724752    -0.27750
H327        H  0.13155746  0.40003686  0.69400145     0.16450
H328        H  0.11741714  0.30579358  0.70698837     0.17030
C329        C  0.04571377  0.38127100  0.86691137    -0.12570
C330        C  0.05087107  0.41928700  0.88486368    -0.27750
H331        H  0.05574471  0.35292630  0.88235531     0.16450
H332        H  0.04067256  0.44686371  0.86796515     0.17030
C333        C  0.44819263  0.41191509  0.61654490    -0.12570
C334        C  0.45522930  0.37264774  0.63151298    -0.27750
H335        H  0.45738541  0.43846973  0.63561293     0.16450
H336        H  0.44712812  0.34514789  0.61350644     0.17030
C337        C  0.45299985  0.45160889  0.55116155    -0.09410
C338        C  0.47415321  0.47439580  0.52939031    -0.10970
C339        C  0.35612593  0.35193372  0.80820271    -0.12570
C340        C  0.38580421  0.33016298  0.78935487    -0.27750
H341        H  0.35944844  0.38557603  0.81067392     0.16450
H342        H  0.38151180  0.29656861  0.78742086     0.17030
C343        C  0.29678612  0.30200835  0.79793667    -0.09410
C344        C  0.27623574  0.27861945  0.77602463    -0.10970
C345        C  0.37916726  0.36654656  0.54517364    -0.12570
C346        C  0.41689331  0.38506337  0.55005795    -0.27750
H347        H  0.35088130  0.38062799  0.55703648     0.16450
H348        H  0.44447589  0.36940640  0.53822682     0.17030
C349        C  0.36911110  0.29894543  0.88370666    -0.12570
C350        C  0.33089116  0.30254554  0.86572164    -0.27750
H351        H  0.39642094  0.31366538  0.87041225     0.16450
H352        H  0.30455691  0.28708485  0.88043726     0.17030
C353        C  0.33345912  0.19937946  0.63416971    -0.12570
C354        C  0.37111420  0.20514521  0.61596137    -0.27750
H355        H  0.30555377  0.20945098  0.61763700     0.16450
H356        H  0.39974142  0.19513876  0.63100450     0.17030
C357        C  0.29889147  0.20294452  0.70118994    -0.09410
C358        C  0.27710145  0.22494961  0.72283530    -0.10970
C359        C  0.19807196  0.36589537  0.66605448    -0.12570
C360        C  0.20352563  0.38418592  0.62827363    -0.27750
H361        H  0.20843425  0.38222215  0.69405767     0.16510
H362        H  0.19326071  0.36935964  0.59953659     0.17030
C363        C  0.36646274  0.45228904  0.62203523    -0.12570
C364        C  0.38544916  0.44743721  0.58453425    -0.27750
H365        H  0.38068188  0.44108554  0.65070340     0.16450
H366        H  0.36978451  0.45895136  0.55662494     0.17030
C367        C  0.13578027  0.05092368  0.61875154    -0.12570
C368        C  0.11708505  0.05393429  0.58074886    -0.27750
H369        H  0.12293492  0.06592208  0.64616330     0.16450
H370        H  0.13124593  0.03812242  0.55429479     0.17030
C371        C  0.29701471  0.11685450  0.62877903    -0.12570
C372        C  0.30164859  0.13579489  0.66644200    -0.27750
H373        H  0.30793671  0.13125971  0.60017538     0.16450
H374        H  0.29074950  0.11985419  0.69435198     0.17030
C375        C  0.28902744  0.36277302  0.84228167    -0.12570
C376        C  0.29504347  0.38618665  0.87688213    -0.27750
H377        H  0.26640750  0.37326117  0.81911279     0.16450
H378        H  0.31718062  0.37701249  0.90089903     0.17030
C379        C  0.13287340  0.45721804  0.88120708    -0.12570
C380        C  0.11361942  0.45244956  0.91846804    -0.27750
H381        H  0.11871920  0.44628469  0.85235865     0.16450
H382        H  0.12931052  0.46330770  0.94667053     0.17030
C383        C  0.19977485  0.13491511  0.83229720    -0.12570
C384        C  0.20524781  0.11795272  0.87069423    -0.27750
H385        H  0.21061535  0.11800441  0.80494900     0.16450
H386        H  0.19431034  0.13331571  0.89878224     0.17030
C387        C  0.41926188  0.11301174  0.95043801    -0.12570
C388        C  0.38173101  0.13221099  0.95409528    -0.27750
H389        H  0.44701583  0.12907036  0.96166099     0.16450
H390        H  0.35332339  0.11769672  0.94269506     0.17030
C391        C  0.38654757  0.04944414  0.91868291    -0.12570
C392        C  0.36706267  0.04470686  0.88131113    -0.27750
H393        H  0.37082285  0.03892509  0.94684776     0.16450
H394        H  0.38135508  0.05495788  0.85241597     0.17030
C395        C  0.45478998  0.04533251  0.95130005    -0.09410
C396        C  0.47710090  0.02210440  0.97140927    -0.10970
C397        C  0.36559945  0.16776589  0.69838007    -0.12570
C398        C  0.38340039  0.12995283  0.70453572    -0.27750
H399        H  0.38223543  0.19557405  0.70853981     0.16450
H400        H  0.36826668  0.10141224  0.69442289     0.17030
C401        C  0.11701766  0.12336444  0.79672436    -0.12570
C402        C  0.13437723  0.16224477  0.79988370    -0.27750
H403        H  0.13245227  0.09619822  0.80959681     0.16450
H404        H  0.11718162  0.18875807  0.78768827     0.17030
C405        C  0.06036294  0.10363792  0.60677303    -0.12570
C406        C  0.04149302  0.08192340  0.63657987    -0.27750
H407        H  0.06283212  0.13729706  0.60984358     0.16450
H408        H  0.03959092  0.04830426  0.63244159     0.17030
C409        C  0.44938777  0.08182665  0.88521551    -0.12570
C410        C  0.45513166  0.11985528  0.86762131    -0.27750
H411        H  0.45890286  0.05424268  0.86796943     0.16450
H412        H  0.44568893  0.14822365  0.88335155     0.17030
O413        O  0.44413795  0.59130392  0.22684528    -0.70570
O414        O  0.05639193  0.59289333  0.27171957    -0.70600
O415        O  0.47997421  0.58945744  0.30347964    -0.70650
O416        O  0.02099304  0.59107385  0.19494014    -0.70700
O417        O  0.02184081  0.66047327  0.19330825    -0.70630
O418        O  0.47942681  0.65884279  0.30501695    -0.70610
O419        O  0.05506653  0.66230037  0.27089520    -0.70590
O420        O  0.44598749  0.66069606  0.22747505    -0.70650
Ni421      Ni  0.50062656  0.58785216  0.24844942     1.25410
Ni422      Ni  0.00021323  0.66390742  0.24968770     1.25360
C423        C  0.42665595  0.62674024  0.22027039     0.91610
C424        C  0.07401682  0.62827248  0.27849271     0.91550
C425        C  0.47267175  0.62343545  0.32264374     0.91570
C426        C  0.02857273  0.62505289  0.17583715     0.91740
C427        C  0.42569569  0.57485315  0.42394078     0.01370
O428        O  0.22929482  0.55725977  0.40866527    -0.70570
O429        O  0.27074114  0.94316924  0.41001399    -0.70600
O430        O  0.30544324  0.52135163  0.40958047    -0.70650
O431        O  0.19453734  0.97921676  0.41141951    -0.70700
O432        O  0.19278662  0.97810126  0.34177348    -0.70630
O433        O  0.30618899  0.52222569  0.33993684    -0.70610
O434        O  0.26969277  0.94426035  0.34036476    -0.70590
O435        O  0.22919937  0.55586246  0.33901906    -0.70650
Ni436      Ni  0.24961709  0.99963254  0.41299563     1.25410
Ni437      Ni  0.24937445  0.99911156  0.33835374     1.25360
C438        C  0.22228605  0.57490140  0.37324646     0.91610
C439        C  0.27724259  0.92543147  0.37458814     0.91550
C440        C  0.32417775  0.52878375  0.37534259     0.91570
C441        C  0.17518257  0.97202754  0.37729987     0.91740
O442        O  0.22790733  0.94481416  0.09033256    -0.70570
O443        O  0.27190588  0.55694251  0.09042499    -0.70600
O444        O  0.30479148  0.97966938  0.08880865    -0.70650
O445        O  0.19540460  0.52155546  0.08865716    -0.70700
O446        O  0.19425869  0.52218658  0.15830880    -0.70630
O447        O  0.30590350  0.97894145  0.15846443    -0.70610
O448        O  0.27154665  0.55524750  0.16006516    -0.70590
O449        O  0.22792947  0.94694308  0.15996339    -0.70650
Ni450      Ni  0.25015108  0.00094448  0.08675414     1.25410
Ni451      Ni  0.25053374  0.50047637  0.16159182     1.25360
C452        C  0.22067630  0.92761708  0.12589037     0.91610
C453        C  0.27873724  0.57442517  0.12599612     0.91550
C454        C  0.32365724  0.97224523  0.12310340     0.91570
C455        C  0.17658402  0.52905734  0.12282338     0.91740
C456        C  0.32510280  0.67548081  0.17500201     0.01370
O457        O  0.34143166  0.69184191  0.47917581    -0.70570
O458        O  0.33980214  0.80777588  0.02249349    -0.70600
O459        O  0.33867577  0.76919404  0.44628713    -0.70650
O460        O  0.33913921  0.73048403  0.05538577    -0.70700
O461        O  0.40858295  0.73007410  0.05667696    -0.70630
O462        O  0.40810348  0.77074712  0.44481056    -0.70610
O463        O  0.40923432  0.80668254  0.02201793    -0.70590
O464        O  0.41085881  0.69420128  0.47985287    -0.70650
Ni465      Ni  0.33757486  0.74790836  0.50126138     1.25410
Ni466      Ni  0.41197627  0.74887625  0.50115349     1.25360
C467        C  0.37697681  0.67485346  0.47216121     0.91610
C468        C  0.37514230  0.82547043  0.02939035     0.91550
C469        C  0.37258165  0.77724068  0.42726502     0.91570
C470        C  0.37331269  0.72304536  0.07431722     0.91740
C471        C  0.32442746  0.82502883  0.32611665     0.01370
C472        C  0.42494521  0.92568811  0.07562429     0.01370
O473        O  0.05596049  0.90951293  0.22915753    -0.70570
O474        O  0.44287113  0.90923005  0.27293572    -0.70600
O475        O  0.02053671  0.91174582  0.30571932    -0.70650
O476        O  0.47807321  0.91067122  0.19633714    -0.70700
O477        O  0.47709266  0.84127438  0.19491120    -0.70630
O478        O  0.02124206  0.84238083  0.30776397    -0.70610
O479        O  0.44423420  0.83983137  0.27240316    -0.70590
O480        O  0.05442346  0.84011887  0.23015678    -0.70650
Ni481      Ni  0.49913583  0.91243858  0.25120756     1.25410
Ni482      Ni  0.49887344  0.83806213  0.25153298     1.25360
C483        C  0.07342116  0.87411171  0.22240484     0.91610
C484        C  0.42529415  0.87384973  0.27977234     0.91550
C485        C  0.02780565  0.87797095  0.32519818     0.91570
C486        C  0.47052834  0.87666764  0.17723724     0.91740
C487        C  0.17570790  0.67614154  0.32513908     0.01370
C488        C  0.07320369  0.92864070  0.42629006     0.01370
C489        C  0.17404544  0.82624953  0.17417310     0.01370
C490        C  0.07555072  0.57668058  0.07486892     0.01370
O491        O  0.09376241  0.73241699  0.44295968    -0.70570
O492        O  0.09038283  0.77232760  0.05477998    -0.70600
O493        O  0.08988174  0.80836737  0.47958081    -0.70650
O494        O  0.08891439  0.69602958  0.01891716    -0.70700
O495        O  0.15835552  0.69497472  0.01951398    -0.70630
O496        O  0.15926707  0.81188705  0.47804255    -0.70610
O497        O  0.15981225  0.77199362  0.05329682    -0.70590
O498        O  0.16320980  0.73473652  0.44436441    -0.70650
Ni499      Ni  0.09020825  0.75310555  0.49956311     1.25410
Ni500      Ni  0.16123506  0.75135375  0.99808243     1.25360
C501        C  0.12916323  0.72620989  0.42545236     0.91610
C502        C  0.12581967  0.77920419  0.07244467     0.91550
C503        C  0.12333546  0.82846239  0.47206614     0.91570
C504        C  0.12308660  0.67724872  0.02642333     0.91740
C505        C  0.50017171  0.49876220  0.99801055     0.01370
C506        C  0.24971994  0.75098265  0.24914372     0.01370
C507        C  0.08326572  0.61692485  0.05115303    -0.12570
C508        C  0.12084329  0.63500534  0.04439084    -0.27750
H509        H  0.05520383  0.63327831  0.04139755     0.16450
H510        H  0.14963725  0.62016060  0.05407093     0.17030
C511        C  0.04835232  0.55023244  0.04837071    -0.09410
C512        C  0.02569126  0.52908142  0.02657249    -0.10970
C513        C  0.16606557  0.80286142  0.13352222    -0.12570
C514        C  0.12841136  0.79669289  0.11509125    -0.27750
H515        H  0.19398903  0.79304915  0.11708262     0.16450
H516        H  0.09975680  0.80645431  0.13002072     0.17030
C517        C  0.20100854  0.79957080  0.20079826    -0.09410
C518        C  0.22304943  0.77762678  0.22247495    -0.10970
C519        C  0.08184601  0.88884392  0.45043097    -0.12570
C520        C  0.11974301  0.87092340  0.45518371    -0.27750
H521        H  0.05434923  0.87224446  0.46128079     0.16450
H522        H  0.14796283  0.88603432  0.44435307     0.17030
C523        C  0.02517330  0.97768823  0.47477574    -0.09410
C524        C  0.04660302  0.95561688  0.45277369    -0.10970
C525        C  0.16878524  0.70008217  0.36550520    -0.12570
C526        C  0.13139631  0.70772405  0.38337364    -0.27750
H527        H  0.19703654  0.70950441  0.38191995     0.16450
H528        H  0.10244460  0.69833151  0.36846752     0.17030
C529        C  0.20200570  0.70244125  0.29787918    -0.09410
C530        C  0.22333349  0.72430972  0.27566924    -0.10970
C531        C  0.11562073  0.87153682  0.20438678    -0.12570
C532        C  0.13368163  0.83392799  0.19778509    -0.27750
H533        H  0.13052583  0.90025521  0.19461536     0.16450
H534        H  0.11728078  0.80592731  0.20761153     0.17030
C535        C  0.04488985  0.88135062  0.36798034    -0.12570
C536        C  0.04960825  0.91941193  0.38601653    -0.27750
H537        H  0.05563377  0.85317084  0.38324837     0.16450
H538        H  0.03886604  0.94684722  0.36923232     0.17030
C539        C  0.44812908  0.91723824  0.11624119    -0.12570
C540        C  0.45312528  0.87945335  0.13460684    -0.27750
H541        H  0.45885169  0.94497311  0.13265462     0.16450
H542        H  0.44255600  0.85098277  0.11963886     0.17030
C543        C  0.45265990  0.95082707  0.04846514    -0.09410
C544        C  0.47570840  0.97024185  0.02559071    -0.10970
C545        C  0.36481649  0.83338360  0.30295100    -0.12570
C546        C  0.38296872  0.87115401  0.29732340    -0.27750
H547        H  0.38120802  0.80559213  0.29267547     0.16450
H548        H  0.36806241  0.89968679  0.30748828     0.17030
C549        C  0.29792735  0.79872108  0.29873685    -0.09410
C550        C  0.27620912  0.77736424  0.27616670    -0.10970
C551        C  0.37789483  0.86779755  0.04689796    -0.12570
C552        C  0.41586163  0.88556296  0.05242331    -0.27750
H553        H  0.34950899  0.88295804  0.05706924     0.16450
H554        H  0.44348724  0.86883246  0.04225680     0.17030
C555        C  0.36986635  0.79525667  0.38492607    -0.12570
C556        C  0.33223889  0.80115825  0.36644189    -0.27750
H557        H  0.39848631  0.80563369  0.37027710     0.16450
H558        H  0.30431955  0.79076970  0.38259098     0.17030
C559        C  0.33323934  0.69906944  0.13473544    -0.12570
C560        C  0.37092422  0.70517936  0.11668579    -0.27750
H561        H  0.30531752  0.70918823  0.11825644     0.16450
H562        H  0.39958150  0.69516440  0.13166298     0.17030
C563        C  0.29842905  0.70225008  0.20151420    -0.09410
C564        C  0.27641490  0.72438541  0.22278756    -0.10970
C565        C  0.19730748  0.86684538  0.16627795    -0.12570
C566        C  0.20293191  0.88523591  0.12853717    -0.27750
H567        H  0.20756257  0.88321293  0.19429071     0.16510
H568        H  0.19279166  0.87034183  0.09979198     0.17030
C569        C  0.36610488  0.95479048  0.12085986    -0.12570
C570        C  0.38518989  0.95021113  0.08335492    -0.27750
H571        H  0.38028513  0.94355045  0.14953517     0.16450
H572        H  0.36946720  0.96133638  0.05532770     0.17030
C573        C  0.13432186  0.54689816  0.12032658    -0.12570
C574        C  0.11591003  0.55310646  0.08260089    -0.27750
H575        H  0.11967248  0.55687307  0.14912958     0.16450
H576        H  0.13203060  0.54302972  0.05451550     0.17030
C577        C  0.29608469  0.61691551  0.12878531    -0.12570
C578        C  0.30145806  0.63524599  0.16664640    -0.27750
H579        H  0.30644884  0.63178182  0.10020931     0.16450
H580        H  0.29106227  0.61888562  0.19450512     0.17030
C581        C  0.30089165  0.86515482  0.33425495    -0.12570
C582        C  0.29477337  0.88311181  0.37209201    -0.27750
H583        H  0.29094434  0.88164944  0.30624845     0.16450
H584        H  0.30471916  0.86814215  0.40082373     0.17030
C585        C  0.13231285  0.95558748  0.37994968    -0.12570
C586        C  0.11333108  0.95232939  0.41760648    -0.27750
H587        H  0.11774455  0.94395741  0.35158528     0.16450
H588        H  0.12944708  0.96393474  0.44526346     0.17030
C589        C  0.19894310  0.63567869  0.33307705    -0.12570
C590        C  0.20500813  0.61740440  0.37082499    -0.27750
H591        H  0.20861261  0.61920652  0.30502307     0.16450
H592        H  0.19531252  0.63235348  0.39959524     0.17030
C593        C  0.41762315  0.61513920  0.44749034    -0.12570
C594        C  0.37983738  0.63278207  0.45396328    -0.27750
H595        H  0.44549571  0.63175954  0.45755781     0.16450
H596        H  0.35121522  0.61761176  0.44407426     0.17030
C597        C  0.38534017  0.55139844  0.41557117    -0.12570
C598        C  0.36673795  0.54613301  0.37779815    -0.27750
H599        H  0.36912300  0.54093404  0.44347582     0.16450
H600        H  0.38139944  0.55659460  0.34916299     0.17030
C601        C  0.45188550  0.54811702  0.45124558    -0.09410
C602        C  0.47292413  0.52654167  0.47424457    -0.10970
C603        C  0.36540720  0.66717562  0.19868189    -0.12570
C604        C  0.38397099  0.62950373  0.20323377    -0.27750
H605        H  0.38172625  0.69489590  0.20957605     0.16450
H606        H  0.36915170  0.60107703  0.19235454     0.17030
C607        C  0.11643418  0.63075351  0.29621241    -0.12570
C608        C  0.13492340  0.66831933  0.30205803    -0.27750
H609        H  0.13123104  0.60208289  0.30622894     0.16450
H610        H  0.11863644  0.69625742  0.29191377     0.17030
C611        C  0.05250889  0.58470358  0.11546325    -0.12570
C612        C  0.04628289  0.62240155  0.13347124    -0.27750
H613        H  0.04268379  0.55680366  0.13204610     0.16450
H614        H  0.05601706  0.65103697  0.11837657     0.17030
C615        C  0.44938203  0.58298035  0.38357713    -0.12570
C616        C  0.45519827  0.62070034  0.36524231    -0.27750
H617        H  0.45953252  0.55513327  0.36716082     0.16450
H618        H  0.44507290  0.64926397  0.38016833     0.17030
O619        O  0.44031165  0.58127971  0.73318821    -0.70570
O620        O  0.05511460  0.58260157  0.77639567    -0.70600
O621        O  0.47764184  0.58734594  0.80829866    -0.70650
O622        O  0.01717398  0.56872807  0.70157298    -0.70700
O623        O  0.02336465  0.63646845  0.68768741    -0.70630
O624        O  0.48012598  0.65612371  0.80117400    -0.70610
O625        O  0.05658614  0.65091345  0.76479834    -0.70590
O626        O  0.44715128  0.64957456  0.72345219    -0.70650
Ni627      Ni  0.49736816  0.57710503  0.75529969     1.25410
Ni628      Ni  0.00218768  0.65141185  0.74363652     1.25360
C629        C  0.42510473  0.61680626  0.72181770     0.91610
C630        C  0.07411009  0.61816400  0.77820982     0.91550
C631        C  0.47182954  0.62332137  0.82318307     0.91570
C632        C  0.02676353  0.59773017  0.67678038     0.91740
C633        C  0.42522157  0.57798673  0.92626291     0.01370
O634        O  0.22808595  0.55888983  0.91080042    -0.70570
O635        O  0.27042117  0.94644994  0.91432606    -0.70600
O636        O  0.30455984  0.52375372  0.91351767    -0.70650
O637        O  0.19427113  0.98248639  0.91419887    -0.70700
O638        O  0.19278274  0.98054074  0.84454605    -0.70630
O639        O  0.30628065  0.52206500  0.84388298    -0.70610
O640        O  0.26870694  0.94559998  0.84460758    -0.70590
O641        O  0.22971672  0.55606772  0.84119538    -0.70650
Ni642      Ni  0.24951396  0.00288320  0.91576683     1.25410
Ni643      Ni  0.24952036  0.00067870  0.84110872     1.25360
C644        C  0.22188847  0.57569015  0.87488453     0.91610
C645        C  0.27613954  0.92769530  0.87934863     0.91550
C646        C  0.32376029  0.52995296  0.87923128     0.91570
C647        C  0.17516103  0.97461250  0.88004533     0.91740
O648        O  0.22834088  0.94424775  0.59201572    -0.70570
O649        O  0.27313532  0.55582249  0.59073110    -0.70600
O650        O  0.30517111  0.97880343  0.59052676    -0.70650
O651        O  0.19632641  0.52140333  0.58793705    -0.70700
O652        O  0.19427544  0.52302404  0.65753294    -0.70630
O653        O  0.30614960  0.97838379  0.66015502    -0.70610
O654        O  0.27201256  0.55417136  0.66036774    -0.70590
O655        O  0.22809136  0.94691685  0.66163511    -0.70650
Ni656      Ni  0.25059968  0.00029804  0.58809523     1.25410
Ni657      Ni  0.25008086  0.49996658  0.66176757     1.25360
C658        C  0.22113051  0.92730378  0.62769070     0.91610
C659        C  0.27964675  0.57324426  0.62637154     0.91550
C660        C  0.32385562  0.97106598  0.62486514     0.91570
C661        C  0.17731422  0.53012273  0.62172587     0.91740
C662        C  0.32628265  0.67271705  0.67679692     0.01370
O663        O  0.34082509  0.69543782  0.97876110    -0.70570
O664        O  0.34025705  0.80411085  0.52320117    -0.70600
O665        O  0.33821645  0.77269290  0.94581445    -0.70650
O666        O  0.33992307  0.72673278  0.55628690    -0.70700
O667        O  0.40935679  0.72696893  0.55761476    -0.70630
O668        O  0.40760217  0.77497553  0.94423105    -0.70610
O669        O  0.40970434  0.80350182  0.52228296    -0.70590
O670        O  0.41025900  0.69803657  0.97886986    -0.70650
Ni671      Ni  0.33700540  0.75154551  0.00059141     1.25410
Ni672      Ni  0.41141352  0.75244086  0.00042608     1.25360
C673        C  0.37639248  0.67848296  0.97184059     0.91610
C674        C  0.37550433  0.82212190  0.52971938     0.91550
C675        C  0.37197043  0.78140741  0.92686366     0.91570
C676        C  0.37418339  0.71972965  0.57535251     0.91740
C677        C  0.31875655  0.82957976  0.82892770     0.01370
C678        C  0.42421629  0.92247424  0.57624508     0.01370
O679        O  0.05719550  0.90961699  0.73010468    -0.70570
O680        O  0.43682256  0.88454752  0.77181151    -0.70600
O681        O  0.02105524  0.91183088  0.80637176    -0.70650
O682        O  0.47305664  0.89904907  0.69652258    -0.70700
O683        O  0.48203554  0.83069100  0.68962019    -0.70630
O684        O  0.02177267  0.84246063  0.80823006    -0.70610
O685        O  0.45100461  0.81681630  0.76667341    -0.70590
O686        O  0.05554023  0.84023012  0.73096275    -0.70650
Ni687      Ni  0.49290798  0.89949436  0.75134851     1.25410
Ni688      Ni  0.50431551  0.82632010  0.74675350     1.25360
C689        C  0.07472369  0.87418490  0.72357877     0.91610
C690        C  0.42602413  0.84579501  0.77550528     0.91550
C691        C  0.02829204  0.87800341  0.82579026     0.91570
C692        C  0.47083604  0.86630995  0.67447090     0.91740
C693        C  0.17373506  0.67381836  0.82359653     0.01370
C694        C  0.07391175  0.92773802  0.92751727     0.01370
C695        C  0.17570798  0.82591382  0.67651454     0.01370
C696        C  0.08046114  0.58164391  0.56931054     0.01370
O697        O  0.08983156  0.72940091  0.94149929    -0.70570
O698        O  0.09287735  0.77373753  0.55635653    -0.70600
O699        O  0.08816276  0.80592575  0.97756030    -0.70650
O700        O  0.09428681  0.69810190  0.51945699    -0.70700
O701        O  0.16380461  0.69983073  0.52128279    -0.70630
O702        O  0.15760057  0.80777338  0.97690321    -0.70610
O703        O  0.16227116  0.77655202  0.55455091    -0.70590
O704        O  0.15924917  0.73061483  0.94284814    -0.70650
Ni705      Ni  0.08684287  0.75090758  0.99815056     1.25410
Ni706      Ni  0.16463159  0.75589127  0.49948161     1.25360
C707        C  0.12512601  0.72273553  0.92381596     0.91610
C708        C  0.12804455  0.78169526  0.57398728     0.91550
C709        C  0.12213652  0.82532160  0.97065294     0.91570
C710        C  0.12915726  0.68078634  0.52735004     0.91740
C711        C  0.49991503  0.50130505  0.50192907     0.01370
C712        C  0.25105154  0.74968239  0.75047884     0.01370
C713        C  0.09435818  0.61471314  0.53894843    -0.12570
C714        C  0.12794258  0.63911448  0.54583582    -0.27750
H715        H  0.07245762  0.62349918  0.51439293     0.16450
H716        H  0.15102246  0.63114313  0.56940268     0.17030
C717        C  0.04924195  0.55480068  0.54749185    -0.09410
C718        C  0.02654170  0.53194094  0.52736437    -0.10970
C719        C  0.16758175  0.80277978  0.63595087    -0.12570
C720        C  0.13008732  0.79789365  0.61703236    -0.27750
H721        H  0.19548692  0.79261013  0.61967301     0.16450
H722        H  0.10141730  0.80784490  0.63181258     0.17030
C723        C  0.20273710  0.79877718  0.70248625    -0.09410
C724        C  0.22484259  0.77609679  0.72324745    -0.10970
C725        C  0.08209083  0.88753686  0.95123920    -0.12570
C726        C  0.11951213  0.86820057  0.95439496    -0.27750
H727        H  0.05441445  0.87159140  0.96258870     0.16450
H728        H  0.14783587  0.88257226  0.94284578     0.17030
C729        C  0.02562743  0.97722680  0.97532604    -0.09410
C730        C  0.04712241  0.95471056  0.95383518    -0.10970
C731        C  0.16513513  0.69837863  0.86334213    -0.12570
C732        C  0.12750170  0.70445764  0.88140793    -0.27750
H733        H  0.19292249  0.70937782  0.87957991     0.16450
H734        H  0.09894458  0.69380172  0.86658052     0.17030
C735        C  0.20020112  0.70084939  0.79661681    -0.09410
C736        C  0.22335159  0.72303657  0.77629068    -0.10970
C737        C  0.11721989  0.87145772  0.70622774    -0.12570
C738        C  0.13544792  0.83377935  0.70029271    -0.27750
H739        H  0.13214952  0.90007148  0.69619032     0.16450
H740        H  0.11902371  0.80586744  0.71031983     0.17030
C741        C  0.04533483  0.88115561  0.86864246    -0.12570
C742        C  0.05075392  0.91908683  0.88677750    -0.27750
H743        H  0.05538888  0.85275327  0.88396051     0.16450
H744        H  0.04059380  0.94673330  0.86997739     0.17030
C745        C  0.44710259  0.91088338  0.61645862    -0.12570
C746        C  0.45415910  0.87165771  0.63150288    -0.27750
H747        H  0.45653317  0.93751414  0.63530335     0.16450
H748        H  0.44588080  0.84408314  0.61369217     0.17030
C749        C  0.45148965  0.95024709  0.55096504    -0.09410
C750        C  0.47267666  0.97290271  0.52912660    -0.10970
C751        C  0.35560311  0.85202309  0.80857897    -0.12570
C752        C  0.38546341  0.83018137  0.79011062    -0.27750
H753        H  0.35860754  0.88572812  0.81051202     0.16450
H754        H  0.38142934  0.79652664  0.78875365     0.17030
C755        C  0.29681678  0.80149341  0.79882506    -0.09410
C756        C  0.27681157  0.77745737  0.77718873    -0.10970
C757        C  0.37786828  0.86449099  0.54722080    -0.12570
C758        C  0.41530862  0.88386021  0.55043020    -0.27750
H759        H  0.34976023  0.87808434  0.56004928     0.16450
H760        H  0.44275820  0.86864206  0.53773604     0.17030
C761        C  0.36840589  0.80076887  0.88516272    -0.12570
C762        C  0.33050762  0.80305936  0.86647936    -0.27750
H763        H  0.39560792  0.81592961  0.87212610     0.16450
H764        H  0.30428961  0.78716393  0.88095871     0.17030
C765        C  0.33471432  0.69697581  0.63683273    -0.12570
C766        C  0.37213498  0.70200666  0.61796990    -0.27750
H767        H  0.30690519  0.70832707  0.62098472     0.16450
H768        H  0.40071272  0.69099352  0.63237521     0.17030
C769        C  0.30081815  0.70016959  0.70416491    -0.09410
C770        C  0.27862866  0.72277541  0.72497497    -0.10970
C771        C  0.19904997  0.86637466  0.66844881    -0.12570
C772        C  0.20381423  0.88486496  0.63062939    -0.27750
H773        H  0.20976895  0.88267311  0.69632768     0.16510
H774        H  0.19322156  0.87002440  0.60202046     0.17030
C775        C  0.36597629  0.95243972  0.62258081    -0.12570
C776        C  0.38420407  0.94643167  0.58484005    -0.27750
H777        H  0.38061870  0.94185097  0.65127154     0.16450
H778        H  0.36815346  0.95738394  0.55692452     0.17030
C779        C  0.13611527  0.55042425  0.61820132    -0.12570
C780        C  0.11759630  0.55418501  0.58022351    -0.27750
H781        H  0.12325276  0.56505459  0.64580710     0.16450
H782        H  0.13175410  0.53870904  0.55356557     0.17030
C783        C  0.29723809  0.61547485  0.62949203    -0.12570
C784        C  0.30082633  0.63401393  0.66743380    -0.27750
H785        H  0.30965975  0.62969329  0.60141599     0.16450
H786        H  0.28851248  0.61819472  0.69481685     0.17030
C787        C  0.28837749  0.86265749  0.84249270    -0.12570
C788        C  0.29359692  0.88561095  0.87756342    -0.27750
H789        H  0.26677012  0.87373857  0.81864867     0.16450
H790        H  0.31494772  0.87602428  0.90212199     0.17030
C791        C  0.13264580  0.95730824  0.88238268    -0.12570
C792        C  0.11427073  0.95139361  0.91995459    -0.27750
H793        H  0.11784337  0.94722441  0.85355055     0.16450
H794        H  0.13059858  0.96145087  0.94809153     0.17030
C795        C  0.19866188  0.63492352  0.83301507    -0.12570
C796        C  0.20417477  0.61773359  0.87126983    -0.27750
H797        H  0.20963859  0.61824561  0.80557412     0.16450
H798        H  0.19316412  0.63286121  0.89945773     0.17030
C799        C  0.41720854  0.61814028  0.94965949    -0.12570
C800        C  0.37937842  0.63613345  0.95470289    -0.27750
H801        H  0.44501563  0.63468959  0.96000523     0.16450
H802        H  0.35088351  0.62105562  0.94430365     0.17030
C803        C  0.38488167  0.55408711  0.91872816    -0.12570
C804        C  0.36624298  0.54754582  0.88123463    -0.27750
H805        H  0.36886146  0.54414570  0.94694094     0.16450
H806        H  0.38084506  0.55717296  0.85227633     0.17030
C807        C  0.45231140  0.55080171  0.95236659    -0.09410
C808        C  0.47391038  0.52714217  0.97267949    -0.10970
C809        C  0.36648118  0.66118740  0.69966240    -0.12570
C810        C  0.38199507  0.62200685  0.70576745    -0.27750
H811        H  0.38507887  0.68782949  0.70950422     0.16450
H812        H  0.36445673  0.59439728  0.69707629     0.17030
C813        C  0.11625939  0.62351333  0.79693895    -0.12570
C814        C  0.13359115  0.66239104  0.80025294    -0.27750
H815        H  0.13157550  0.59634074  0.80993996     0.16450
H816        H  0.11650398  0.68892667  0.78795657     0.17030
C817        C  0.06106298  0.60399634  0.60676369    -0.12570
C818        C  0.04184828  0.58218847  0.63629877    -0.27750
H819        H  0.06363620  0.63762076  0.61012806     0.16450
H820        H  0.03982438  0.54860769  0.63193515     0.17030
C821        C  0.44808358  0.58652369  0.88573544    -0.12570
C822        C  0.45429837  0.62391223  0.86611287    -0.27750
H823        H  0.45797953  0.55797102  0.87042916     0.16450
H824        H  0.44459636  0.65316367  0.87995206     0.17030
O825        O  0.94071816  0.08157128  0.23396453    -0.70570
O826        O  0.55669102  0.09070379  0.27205018    -0.70600
O827        O  0.97820541  0.08782429  0.30904074    -0.70650
O828        O  0.52099014  0.08832883  0.19513542    -0.70700
O829        O  0.52213317  0.15769649  0.19319186    -0.70630
O830        O  0.98041562  0.15658707  0.30151542    -0.70610
O831        O  0.55539268  0.16008457  0.27087868    -0.70590
O832        O  0.94755312  0.14981300  0.22376517    -0.70650
Ni833      Ni  0.99778190  0.07739748  0.25592500     1.25410
Ni834      Ni  0.50062346  0.16161029  0.24980584     1.25360
C835        C  0.92551042  0.11699517  0.22231859     0.91610
C836        C  0.57433134  0.12615603  0.27870159     0.91550
C837        C  0.97213049  0.12389146  0.32365140     0.91570
C838        C  0.52854864  0.12213036  0.17574869     0.91740
C839        C  0.92404540  0.07975874  0.42646413     0.01370
O840        O  0.72859617  0.05702090  0.41060886    -0.70570
O841        O  0.77208628  0.44402913  0.40946953    -0.70600
O842        O  0.80507289  0.02188005  0.41212572    -0.70650
O843        O  0.69553859  0.47910679  0.41161887    -0.70700
O844        O  0.69339803  0.47829783  0.34198035    -0.70630
O845        O  0.80622972  0.02285192  0.34249116    -0.70610
O846        O  0.77074698  0.44543588  0.33981994    -0.70590
O847        O  0.72898608  0.05558625  0.34096303    -0.70650
Ni848      Ni  0.75035621  0.50021405  0.41294695     1.25410
Ni849      Ni  0.74967274  0.50013034  0.33830352     1.25360
C850        C  0.72171657  0.07457840  0.37513451     0.91610
C851        C  0.77858513  0.42650565  0.37393149     0.91550
C852        C  0.82383970  0.02985806  0.37800768     0.91570
C853        C  0.67613577  0.47167268  0.37758738     0.91740
O854        O  0.72881353  0.44318551  0.09202512    -0.70570
O855        O  0.77100403  0.05450236  0.09225673    -0.70600
O856        O  0.80497483  0.47925174  0.09075383    -0.70650
O857        O  0.69461709  0.01914539  0.09030774    -0.70700
O858        O  0.69293444  0.01953825  0.15994434    -0.70630
O859        O  0.80644137  0.47881884  0.16040299    -0.70610
O860        O  0.77002771  0.05292153  0.16189893    -0.70590
O861        O  0.72931733  0.44496093  0.16166643    -0.70650
Ni862      Ni  0.75021895  0.49965557  0.08858888     1.25410
Ni863      Ni  0.74920511  0.99807344  0.16335275     1.25360
C864        C  0.72205254  0.42571225  0.12754177     0.91610
C865        C  0.77763733  0.07198223  0.12784161     0.91550
C866        C  0.82407089  0.47223579  0.12499143     0.91570
C867        C  0.67554367  0.02646888  0.12437026     0.91740
C868        C  0.82586856  0.17163277  0.17716447     0.01370
O869        O  0.84099212  0.19697456  0.48135184    -0.70570
O870        O  0.84055365  0.30822222  0.02482613    -0.70600
O871        O  0.83948830  0.27384765  0.44770904    -0.70650
O872        O  0.83911138  0.23062778  0.05809163    -0.70700
O873        O  0.90854392  0.23006178  0.05960234    -0.70630
O874        O  0.90893505  0.27466874  0.44637752    -0.70610
O875        O  0.91000144  0.30682517  0.02445784    -0.70590
O876        O  0.91045219  0.19859010  0.48193727    -0.70650
Ni877      Ni  0.83800169  0.25313064  0.50293625     1.25410
Ni878      Ni  0.91242322  0.25325640  0.50287359     1.25360
C879        C  0.87632121  0.17962654  0.47439968     0.91610
C880        C  0.87595930  0.32588494  0.03143044     0.91550
C881        C  0.87354060  0.28108434  0.42858366     0.91570
C882        C  0.87324910  0.22267278  0.07703303     0.91740
C883        C  0.82593151  0.32577389  0.32587263     0.01370
C884        C  0.92488198  0.42733894  0.07581945     0.01370
O885        O  0.55712209  0.40833824  0.22882824    -0.70570
O886        O  0.94436404  0.40995855  0.27193656    -0.70600
O887        O  0.52129374  0.41087195  0.30532765    -0.70650
O888        O  0.97978521  0.41162967  0.19541670    -0.70700
O889        O  0.97881094  0.34224792  0.19384848    -0.70630
O890        O  0.52165357  0.34149791  0.30725305    -0.70610
O891        O  0.94585621  0.34057316  0.27138049    -0.70590
O892        O  0.55520084  0.33895989  0.22989493    -0.70650
Ni893      Ni  0.00074480  0.41335120  0.25027899     1.25410
Ni894      Ni  0.00059740  0.33899523  0.25051900     1.25360
C895        C  0.57450419  0.37282623  0.22236222     0.91610
C896        C  0.92682092  0.37453333  0.27878417     0.91550
C897        C  0.52843346  0.37700470  0.32476830     0.91570
C898        C  0.97218425  0.37768547  0.17626115     0.91740
C899        C  0.67506913  0.17530482  0.32635157     0.01370
C900        C  0.57489357  0.42601301  0.42654751     0.01370
C901        C  0.67561086  0.32421822  0.17573183     0.01370
C902        C  0.57523992  0.07291602  0.07459637     0.01370
O903        O  0.59103502  0.22930391  0.44470824    -0.70570
O904        O  0.59135167  0.26945930  0.05693436    -0.70600
O905        O  0.58927069  0.30577900  0.48039601    -0.70650
O906        O  0.58956497  0.19319177  0.02072977    -0.70700
O907        O  0.65899894  0.19191467  0.02186155    -0.70630
O908        O  0.65870205  0.30744168  0.47998228    -0.70610
O909        O  0.66077318  0.26907154  0.05554825    -0.70590
O910        O  0.66045933  0.23023550  0.44650661    -0.70650
Ni911      Ni  0.58764717  0.25095653  0.50129439     1.25410
Ni912      Ni  0.66237341  0.24836645  0.00046324     1.25360
C913        C  0.62645684  0.22263398  0.42724188     0.91610
C914        C  0.62678587  0.27642704  0.07460292     0.91550
C915        C  0.62329430  0.32493617  0.47316570     0.91570
C916        C  0.62358501  0.17421372  0.02827687     0.91740
C917        C  0.99912618  0.00410246  0.00175767     0.01370
C918        C  0.75138773  0.24908140  0.25097281     0.01370
C919        C  0.58329936  0.11312551  0.05080596    -0.12570
C920        C  0.62095497  0.13174912  0.04568201    -0.27750
H921        H  0.55544066  0.12914930  0.03998618     0.16450
H922        H  0.64952895  0.11719019  0.05640373     0.17030
C923        C  0.54976095  0.04521561  0.04739056    -0.09410
C924        C  0.52970563  0.02205569  0.02492469    -0.10970
C925        C  0.66732233  0.30087453  0.13513007    -0.12570
C926        C  0.62951996  0.29422486  0.11711981    -0.27750
H927        H  0.69517618  0.29120981  0.11848653     0.16450
H928        H  0.60090548  0.30376354  0.13226675     0.17030
C929        C  0.70265129  0.29732187  0.20215378    -0.09410
C930        C  0.72488704  0.27531888  0.22362750    -0.10970
C931        C  0.58301761  0.38574417  0.45017986    -0.12570
C932        C  0.62068559  0.36740108  0.45575381    -0.27750
H933        H  0.55516058  0.36942801  0.46052160     0.16450
H934        H  0.64927162  0.38223050  0.44550414     0.17030
C935        C  0.52704384  0.47477499  0.47569092    -0.09410
C936        C  0.54857067  0.45289409  0.45352684    -0.10970
C937        C  0.66688040  0.19896547  0.36669956    -0.12570
C938        C  0.62914201  0.20491460  0.38472078    -0.27750
H939        H  0.69474003  0.20917240  0.38331057     0.16450
H940        H  0.60055389  0.19476922  0.36960060     0.17030
C941        C  0.70199951  0.20182573  0.29968454    -0.09410
C942        C  0.72434896  0.22318333  0.27785179    -0.10970
C943        C  0.61698007  0.36995256  0.20494735    -0.12570
C944        C  0.63529578  0.33225917  0.19940116    -0.27750
H945        H  0.63185910  0.39848882  0.19461625     0.16450
H946        H  0.61891211  0.30443544  0.20973427     0.17030
C947        C  0.54571585  0.37993747  0.36757926    -0.12570
C948        C  0.55112660  0.41769401  0.38604706    -0.27750
H949        H  0.55605895  0.35146685  0.38257671     0.16450
H950        H  0.54076202  0.44544321  0.36954812     0.17030
C951        C  0.94891636  0.41863384  0.11586429    -0.12570
C952        C  0.95451119  0.38068263  0.13373809    -0.27750
H953        H  0.95946674  0.44629733  0.13250926     0.16450
H954        H  0.94400680  0.35228274  0.11858922     0.17030
C955        C  0.95098250  0.45438436  0.04899297    -0.09410
C956        C  0.97200634  0.47663395  0.02681705    -0.10970
C957        C  0.86641112  0.33396070  0.30261716    -0.12570
C958        C  0.88443798  0.37174684  0.29640783    -0.27750
H959        H  0.88299655  0.30611058  0.29284445     0.16450
H960        H  0.86935779  0.40033020  0.30615936     0.17030
C961        C  0.79946491  0.29869116  0.29907385    -0.09410
C962        C  0.77778700  0.27628289  0.27742205    -0.10970
C963        C  0.87861644  0.36849827  0.04818961    -0.12570
C964        C  0.91625700  0.38739953  0.05195318    -0.27750
H965        H  0.85030817  0.38292065  0.05957527     0.16450
H966        H  0.94385166  0.37146572  0.04052046     0.17030
C967        C  0.87117762  0.29794805  0.38574907    -0.12570
C968        C  0.83374300  0.30258511  0.36658290    -0.27750
H969        H  0.89979884  0.30851685  0.37123587     0.16450
H970        H  0.80582129  0.29201406  0.38261931     0.17030
C971        C  0.83364243  0.19590846  0.13699086    -0.12570
C972        C  0.87109121  0.20350271  0.11904285    -0.27750
H973        H  0.80556819  0.20607453  0.12080540     0.16450
H974        H  0.89993486  0.19376296  0.13383489     0.17030
C975        C  0.80038383  0.19896248  0.20457323    -0.09410
C976        C  0.77837361  0.22166368  0.22543718    -0.10970
C977        C  0.69907258  0.36470227  0.16780118    -0.12570
C978        C  0.70464308  0.38316603  0.13008850    -0.27750
H979        H  0.70936960  0.38102657  0.19582308     0.16510
H980        H  0.69443074  0.36832468  0.10133996     0.17030
C981        C  0.86664525  0.45538580  0.12242101    -0.12570
C982        C  0.88482929  0.45070317  0.08454562    -0.27750
H983        H  0.88160384  0.44473978  0.15093039     0.16450
H984        H  0.86835260  0.46136957  0.05676045     0.17030
C985        C  0.63327272  0.04404966  0.12149611    -0.12570
C986        C  0.61561481  0.05006420  0.08345262    -0.27750
H987        H  0.61800995  0.05381800  0.15004896     0.16450
H988        H  0.63238953  0.04015591  0.05568488     0.17030
C989        C  0.79552031  0.11420469  0.13065657    -0.12570
C990        C  0.80067779  0.13250668  0.16851689    -0.27750
H991        H  0.80687515  0.12863918  0.10223506     0.16450
H992        H  0.78942434  0.11649126  0.19624257     0.17030
C993        C  0.80227117  0.36600141  0.33359541    -0.12570
C994        C  0.79634722  0.38428532  0.37133586    -0.27750
H995        H  0.79210902  0.38224594  0.30552501     0.16450
H996        H  0.80651004  0.36955966  0.40011640     0.17030
C997        C  0.63360538  0.45436615  0.38040352    -0.12570
C998        C  0.61531746  0.44935135  0.41822874    -0.27750
H999        H  0.61861135  0.44384964  0.35182779     0.16450
H1000       H  0.63183025  0.45988361  0.44607882     0.17030
C1001       C  0.69853747  0.13511399  0.33471027    -0.12570
C1002       C  0.70420057  0.11692834  0.37254318    -0.27750
H1003       H  0.70880576  0.11874661  0.30680822     0.16450
H1004       H  0.69401538  0.13179240  0.40118334     0.17030
C1005       C  0.91638060  0.12007394  0.44954407    -0.12570
C1006       C  0.87870602  0.13759273  0.45642172    -0.27750
H1007       H  0.94443855  0.13670464  0.45905960     0.16450
H1008       H  0.84993681  0.12239055  0.44701852     0.17030
C1009       C  0.88366784  0.05600667  0.41842004    -0.12570
C1010       C  0.86591153  0.04850383  0.38060416    -0.27750
H1011       H  0.86714662  0.04642427  0.44645915     0.16450
H1012       H  0.88095707  0.05793112  0.35181059     0.17030
C1013       C  0.95050795  0.05304018  0.45351578    -0.09410
C1014       C  0.97199845  0.03075029  0.47534568    -0.10970
C1015       C  0.86644598  0.16077107  0.19979863    -0.12570
C1016       C  0.88237467  0.12182465  0.20617371    -0.27750
H1017       H  0.88483636  0.18763581  0.20941894     0.16450
H1018       H  0.86505538  0.09399674  0.19775216     0.17030
C1019       C  0.61667959  0.12906328  0.29666072    -0.12570
C1020       C  0.63481352  0.16689597  0.30249772    -0.27750
H1021       H  0.63156908  0.10058580  0.30708455     0.16450
H1022       H  0.61842545  0.19464330  0.29201876     0.17030
C1023       C  0.55116853  0.08125247  0.11472822    -0.12570
C1024       C  0.54592671  0.11904918  0.13311189    -0.27750
H1025       H  0.54061403  0.05353894  0.13115447     0.16450
H1026       H  0.55655307  0.14746650  0.11821016     0.17030
C1027       C  0.94764558  0.08769043  0.38625341    -0.12570
C1028       C  0.95415294  0.12484487  0.36635052    -0.27750
H1029       H  0.95775210  0.05897713  0.37139339     0.16450
H1030       H  0.94419799  0.15422518  0.37972689     0.17030
O1031       O  0.94083866  0.08271991  0.73384020    -0.70570
O1032       O  0.55628595  0.09165871  0.77179686    -0.70600
O1033       O  0.97877358  0.08854401  0.80878899    -0.70650
O1034       O  0.52020770  0.09033707  0.69543435    -0.70700
O1035       O  0.52095171  0.15973531  0.69432783    -0.70630
O1036       O  0.98109329  0.15730010  0.80140618    -0.70610
O1037       O  0.55464032  0.16105547  0.77158233    -0.70590
O1038       O  0.94804907  0.15091031  0.72367643    -0.70650
Ni1039     Ni  0.99807360  0.07821210  0.75561105     1.25410
Ni1040     Ni  0.49971973  0.16263812  0.75098115     1.25360
C1041       C  0.92578430  0.11827199  0.72227538     0.91610
C1042       C  0.57388120  0.12709619  0.77850354     0.91550
C1043       C  0.97280624  0.12455802  0.82351847     0.91570
C1044       C  0.52767077  0.12443530  0.67655804     0.91740
C1045       C  0.92462197  0.07961832  0.92606122     0.01370
O1046       O  0.72841907  0.05704611  0.90628179    -0.70570
O1047       O  0.77098785  0.44460251  0.90966898    -0.70600
O1048       O  0.80502426  0.02233240  0.90985495    -0.70650
O1049       O  0.69379604  0.47838522  0.91099033    -0.70700
O1050       O  0.69263895  0.47814804  0.84133869    -0.70630
O1051       O  0.80785834  0.02430465  0.84027355    -0.70610
O1052       O  0.77040376  0.44640222  0.84001607    -0.70590
O1053       O  0.73010354  0.05590745  0.83662591    -0.70650
Ni1054     Ni  0.74851477  0.50040911  0.91327274     1.25410
Ni1055     Ni  0.74860025  0.50088122  0.83864748     1.25360
C1056       C  0.72213747  0.07470192  0.87081110     0.91610
C1057       C  0.77804212  0.42735453  0.87413327     0.91550
C1058       C  0.82460351  0.03078712  0.87625729     0.91570
C1059       C  0.67502436  0.47069780  0.87658352     0.91740
O1060       O  0.72811053  0.44591907  0.59031632    -0.70570
O1061       O  0.77150338  0.05790317  0.59166460    -0.70600
O1062       O  0.80461579  0.48125823  0.58914344    -0.70650
O1063       O  0.69513056  0.02213762  0.59008158    -0.70700
O1064       O  0.69384896  0.02301924  0.65973528    -0.70630
O1065       O  0.80560308  0.48049774  0.65880203    -0.70610
O1066       O  0.77080407  0.05652062  0.66131282    -0.70590
O1067       O  0.72809067  0.44817063  0.65995067    -0.70650
Ni1068     Ni  0.74991126  0.50215781  0.58688111     1.25410
Ni1069     Ni  0.75026119  0.00182078  0.66320094     1.25360
C1070       C  0.72109284  0.42878285  0.62592497     0.91610
C1071       C  0.77821472  0.07546800  0.62719327     0.91550
C1072       C  0.82344090  0.47391698  0.62348032     0.91570
C1073       C  0.67616801  0.02953448  0.62419957     0.91740
C1074       C  0.82675063  0.17429579  0.67717467     0.01370
O1075       O  0.84051695  0.19602631  0.98102927    -0.70570
O1076       O  0.84137505  0.30942454  0.52433210    -0.70600
O1077       O  0.83901479  0.27320430  0.94794014    -0.70650
O1078       O  0.84015818  0.23216821  0.55811342    -0.70700
O1079       O  0.90959409  0.23152341  0.55932747    -0.70630
O1080       O  0.90846188  0.27411665  0.94693295    -0.70610
O1081       O  0.91082638  0.30809049  0.52367537    -0.70590
O1082       O  0.90996752  0.19782826  0.98198766    -0.70650
Ni1083     Ni  0.83728512  0.25204004  0.00301932     1.25410
Ni1084     Ni  0.91170331  0.25224402  0.00330579     1.25360
C1085       C  0.87594678  0.17882899  0.97416375     0.91610
C1086       C  0.87677515  0.32714736  0.53073591     0.91550
C1087       C  0.87313761  0.28071041  0.92904309     0.91570
C1088       C  0.87437825  0.22435336  0.57696836     0.91740
C1089       C  0.82601132  0.32675650  0.82655575     0.01370
C1090       C  0.92504124  0.42873737  0.57559365     0.01370
O1091       O  0.55112957  0.40550707  0.73072613    -0.70570
O1092       O  0.94431075  0.41043769  0.77182341    -0.70600
O1093       O  0.51416563  0.39840903  0.80658733    -0.70650
O1094       O  0.97951851  0.41221153  0.69525033    -0.70700
O1095       O  0.97828719  0.34283947  0.69335370    -0.70630
O1096       O  0.52633676  0.33025063  0.80433731    -0.70610
O1097       O  0.94542732  0.34104332  0.77092183    -0.70590
O1098       O  0.55800479  0.33674700  0.72714417    -0.70650
Ni1099     Ni  0.00060773  0.41360376  0.75002427     1.25410
Ni1100     Ni  0.00010422  0.33923973  0.74997668     1.25360
C1101       C  0.57306613  0.37280174  0.72216841     0.91610
C1102       C  0.92664862  0.37507679  0.77863846     0.91550
C1103       C  0.52803929  0.36562229  0.82370859     0.91570
C1104       C  0.97174927  0.37838457  0.67596200     0.91740
C1105       C  0.67541851  0.17607294  0.82375523     0.01370
C1106       C  0.57415845  0.42121772  0.92330229     0.01370
C1107       C  0.67614977  0.32833569  0.67584746     0.01370
C1108       C  0.57488308  0.07586011  0.57584199     0.01370
O1109       O  0.59136509  0.22696976  0.94345262    -0.70570
O1110       O  0.59099631  0.27266967  0.55792368    -0.70600
O1111       O  0.58955451  0.30300399  0.97970792    -0.70650
O1112       O  0.58924514  0.19612825  0.52218055    -0.70700
O1113       O  0.65867587  0.19470583  0.52310005    -0.70630
O1114       O  0.65898047  0.30476920  0.97901634    -0.70610
O1115       O  0.66040268  0.27194917  0.55657905    -0.70590
O1116       O  0.66079339  0.22777131  0.94531863    -0.70650
Ni1117     Ni  0.58797727  0.24812777  0.00020790     1.25410
Ni1118     Ni  0.66203410  0.25108247  0.50156036     1.25360
C1119       C  0.62679188  0.22056459  0.92590333     0.91610
C1120       C  0.62644597  0.27957315  0.57559429     0.91550
C1121       C  0.62351418  0.32217754  0.97230278     0.91570
C1122       C  0.62325948  0.17707644  0.52962249     0.91740
C1123       C  0.99880010  0.00409854  0.50178598     0.01370
C1124       C  0.75159394  0.25170687  0.75020020     0.01370
C1125       C  0.58296163  0.11604696  0.55208704    -0.12570
C1126       C  0.62062927  0.13457734  0.54693971    -0.27750
H1127       H  0.55511281  0.13224961  0.54150491     0.16450
H1128       H  0.64918626  0.11988941  0.55753376     0.17030
C1129       C  0.54777550  0.04904743  0.54952693    -0.09410
C1130       C  0.52538709  0.02695598  0.52834393    -0.10970
C1131       C  0.66727177  0.30443193  0.63568684    -0.12570
C1132       C  0.62933181  0.29767232  0.61802733    -0.27750
H1133       H  0.69496609  0.29455138  0.61889898     0.16450
H1134       H  0.60086250  0.30745122  0.63330356     0.17030
C1135       C  0.70373513  0.30156406  0.70199170    -0.09410
C1136       C  0.72569984  0.27885686  0.72306659    -0.10970
C1137       C  0.58279730  0.38233334  0.94881967    -0.12570
C1138       C  0.62064658  0.36440501  0.95447222    -0.27750
H1139       H  0.55512618  0.36608961  0.95975450     0.16450
H1140       H  0.64901868  0.37905673  0.94340044     0.17030
C1141       C  0.52522893  0.47143383  0.97026964    -0.09410
C1142       C  0.54635899  0.44864058  0.94848356    -0.10970
C1143       C  0.66717723  0.19888728  0.86459108    -0.12570
C1144       C  0.62947881  0.20377212  0.88302648    -0.27750
H1145       H  0.69498901  0.20919649  0.88121997     0.16450
H1146       H  0.60093550  0.19353172  0.86788606     0.17030
C1147       C  0.70189875  0.20338840  0.79748179    -0.09410
C1148       C  0.72411989  0.22539438  0.77618868    -0.10970
C1149       C  0.61607810  0.37370238  0.70514228    -0.12570
C1150       C  0.63645656  0.33659470  0.70017052    -0.27750
H1151       H  0.62913890  0.40287844  0.69414674     0.16450
H1152       H  0.62195213  0.30811736  0.71145966     0.17030
C1153       C  0.54715016  0.37080173  0.86582480    -0.12570
C1154       C  0.55187206  0.40980046  0.88251697    -0.27750
H1155       H  0.55892471  0.34340516  0.88174504     0.16450
H1156       H  0.54084873  0.43647829  0.86474666     0.17030
C1157       C  0.94826377  0.41975984  0.61602170    -0.12570
C1158       C  0.95409500  0.38166221  0.63347571    -0.27750
H1159       H  0.95837109  0.44733821  0.63308305     0.16450
H1160       H  0.94404404  0.35332519  0.61790855     0.17030
C1161       C  0.95200876  0.45576151  0.54957615    -0.09410
C1162       C  0.97392901  0.47780026  0.52804672    -0.10970
C1163       C  0.86654819  0.33471675  0.80339091    -0.12570
C1164       C  0.88444385  0.37245133  0.79662142    -0.27750
H1165       H  0.88311871  0.30677093  0.79386586     0.16450
H1166       H  0.86937895  0.40113121  0.80610767     0.17030
C1167       C  0.79953828  0.29992037  0.79963623    -0.09410
C1168       C  0.77782279  0.27806347  0.77753152    -0.10970
C1169       C  0.87928499  0.36979960  0.54746142    -0.12570
C1170       C  0.91679030  0.38890725  0.55135305    -0.27750
H1171       H  0.85090045  0.38406761  0.55885390     0.16450
H1172       H  0.94449739  0.37307234  0.54005454     0.17030
C1173       C  0.87093230  0.29809981  0.88637642    -0.12570
C1174       C  0.83353880  0.30348262  0.86730180    -0.27750
H1175       H  0.89967983  0.30835651  0.87189002     0.16450
H1176       H  0.80548647  0.29321083  0.88330009     0.17030
C1177       C  0.83486817  0.19865200  0.63721704    -0.12570
C1178       C  0.87232970  0.20555276  0.61911335    -0.27750
H1179       H  0.80689082  0.20926831  0.62114557     0.16450
H1180       H  0.90108562  0.19536681  0.63377566     0.17030
C1181       C  0.80123242  0.20174820  0.70438761    -0.09410
C1182       C  0.77886185  0.22453274  0.72474616    -0.10970
C1183       C  0.69890930  0.36867495  0.66710003    -0.12570
C1184       C  0.70390753  0.38640915  0.62899267    -0.27750
H1185       H  0.70936552  0.38538410  0.69483319     0.16510
H1186       H  0.69360828  0.37110025  0.60052290     0.17030
C1187       C  0.86597605  0.45677155  0.62125882    -0.12570
C1188       C  0.88480431  0.45221412  0.58366311    -0.27750
H1189       H  0.88047679  0.44592022  0.64992544     0.16450
H1190       H  0.86879463  0.46307583  0.55568726     0.17030
C1191       C  0.63371986  0.04684457  0.62160082    -0.12570
C1192       C  0.61517794  0.05232073  0.58384797    -0.27750
H1193       H  0.61907888  0.05716045  0.65028818     0.16450
H1194       H  0.63131222  0.04196229  0.55587158     0.17030
C1195       C  0.79607461  0.11761116  0.63007855    -0.12570
C1196       C  0.80124380  0.13558491  0.66810472    -0.27750
H1197       H  0.80758178  0.13209341  0.60174453     0.16450
H1198       H  0.78975045  0.11954639  0.69572042     0.17030
C1199       C  0.80245570  0.36706381  0.83402496    -0.12570
C1200       C  0.79611557  0.38528207  0.87167284    -0.27750
H1201       H  0.79253302  0.38331865  0.80587028     0.16450
H1202       H  0.80598075  0.37052484  0.90054126     0.17030
C1203       C  0.63290419  0.45193687  0.87836135    -0.12570
C1204       C  0.61417719  0.44563416  0.91570713    -0.27750
H1205       H  0.61861702  0.44143500  0.84941845     0.16450
H1206       H  0.62981639  0.45656721  0.94390959     0.17030
C1207       C  0.69928734  0.13592247  0.83115674    -0.12570
C1208       C  0.70456406  0.11697885  0.86859146    -0.27750
H1209       H  0.70977845  0.12010775  0.80301888     0.16450
H1210       H  0.69398196  0.13123683  0.89739518     0.17030
C1211       C  0.91653440  0.11969488  0.94932886    -0.12570
C1212       C  0.87867569  0.13693620  0.95598539    -0.27750
H1213       H  0.94443273  0.13641303  0.95916109     0.16450
H1214       H  0.85005864  0.12164134  0.94627194     0.17030
C1215       C  0.88437037  0.05574557  0.91763566    -0.12570
C1216       C  0.86666141  0.04926524  0.87967858    -0.27750
H1217       H  0.86774353  0.04553136  0.94538865     0.16450
H1218       H  0.88182072  0.05940160  0.85118759     0.17030
C1219       C  0.95107079  0.05285267  0.95307344    -0.09410
C1220       C  0.97253464  0.03056831  0.97493037    -0.10970
C1221       C  0.86710622  0.16279744  0.69996955    -0.12570
C1222       C  0.88261891  0.12360363  0.70622264    -0.27750
H1223       H  0.88576007  0.18941755  0.70975111     0.16450
H1224       H  0.86500849  0.09600196  0.69765262     0.17030
C1225       C  0.61659904  0.12992053  0.79536860    -0.12570
C1226       C  0.63511668  0.16768399  0.80011354    -0.27750
H1227       H  0.63146024  0.10149927  0.80599341     0.16450
H1228       H  0.61870725  0.19539796  0.78957248     0.17030
C1229       C  0.55169858  0.08411522  0.61627856    -0.12570
C1230       C  0.54531008  0.12188168  0.63414225    -0.27750
H1231       H  0.54193320  0.05623347  0.63292834     0.16450
H1232       H  0.55496433  0.15051097  0.61898650     0.17030
C1233       C  0.94848845  0.08799056  0.88604508    -0.12570
C1234       C  0.95487186  0.12528836  0.86629372    -0.27750
H1235       H  0.95883261  0.05940636  0.87110322     0.16450
H1236       H  0.94471004  0.15455295  0.87976486     0.17030
O1237       O  0.94380254  0.59268804  0.22803282    -0.70570
O1238       O  0.55708231  0.59125558  0.27022797    -0.70600
O1239       O  0.97921088  0.59134794  0.30475778    -0.70650
O1240       O  0.52129677  0.58928776  0.19337888    -0.70700
O1241       O  0.52234549  0.65865755  0.19171637    -0.70630
O1242       O  0.97856942  0.66075502  0.30608379    -0.70610
O1243       O  0.55574599  0.66064569  0.26940637    -0.70590
O1244       O  0.94534485  0.66210378  0.22852789    -0.70650
Ni1245     Ni  0.00010007  0.58952210  0.24985573     1.25410
Ni1246     Ni  0.50089215  0.66220451  0.24837257     1.25360
C1247       C  0.92622992  0.62800509  0.22126212     0.91610
C1248       C  0.57465831  0.62666914  0.27717251     0.91550
C1249       C  0.97173577  0.62542419  0.32371602     0.91570
C1250       C  0.52887967  0.62318496  0.17415081     0.91740
C1251       C  0.92449602  0.57749551  0.42482858     0.01370
O1252       O  0.72862119  0.55642373  0.40972182    -0.70570
O1253       O  0.77177159  0.94446236  0.41018291    -0.70600
O1254       O  0.80508618  0.52138099  0.41099008    -0.70650
O1255       O  0.69528368  0.97982052  0.41202129    -0.70700
O1256       O  0.69358233  0.97918102  0.34237026    -0.70630
O1257       O  0.80596189  0.52207995  0.34133822    -0.70610
O1258       O  0.77087573  0.94614410  0.34054241    -0.70590
O1259       O  0.72868802  0.55480889  0.34007207    -0.70650
Ni1260     Ni  0.75021290  0.00074947  0.41373662     1.25410
Ni1261     Ni  0.74992519  0.00090903  0.33910357     1.25360
C1262       C  0.72161331  0.57389801  0.37423054     0.91610
C1263       C  0.77835024  0.92700334  0.37462171     0.91550
C1264       C  0.82375111  0.52904665  0.37676678     0.91570
C1265       C  0.67603446  0.97261469  0.37784246     0.91740
O1266       O  0.72739467  0.94194600  0.09168409    -0.70570
O1267       O  0.77157385  0.55614598  0.09182357    -0.70600
O1268       O  0.80397924  0.97749307  0.09058210    -0.70650
O1269       O  0.69548993  0.52017533  0.08967522    -0.70700
O1270       O  0.69359383  0.52127115  0.15929915    -0.70630
O1271       O  0.80555210  0.97681386  0.16024158    -0.70610
O1272       O  0.77065080  0.55499475  0.16146715    -0.70590
O1273       O  0.72829822  0.94319708  0.16132645    -0.70650
Ni1274     Ni  0.74924752  0.99824718  0.08870841     1.25410
Ni1275     Ni  0.74998288  0.50000609  0.16322523     1.25360
C1276       C  0.72053525  0.92432435  0.12708887     0.91610
C1277       C  0.77810404  0.57393056  0.12729787     0.91550
C1278       C  0.82316654  0.97048543  0.12479468     0.91570
C1279       C  0.67630305  0.52780957  0.12356902     0.91740
C1280       C  0.82442363  0.67555087  0.17546870     0.01370
O1281       O  0.84094109  0.69492677  0.48050033    -0.70570
O1282       O  0.84060410  0.80951916  0.02255021    -0.70600
O1283       O  0.83891954  0.77215537  0.44733743    -0.70650
O1284       O  0.83840221  0.73239856  0.05610848    -0.70700
O1285       O  0.90784469  0.73148911  0.05798325    -0.70630
O1286       O  0.90834510  0.77316875  0.44579421    -0.70610
O1287       O  0.91005010  0.80776242  0.02219679    -0.70590
O1288       O  0.91037286  0.69671277  0.48102115    -0.70650
Ni1289     Ni  0.83771419  0.75113894  0.50243729     1.25410
Ni1290     Ni  0.91210222  0.75142276  0.50225916     1.25360
C1291       C  0.87632173  0.67763146  0.47338560     0.91610
C1292       C  0.87610280  0.82695750  0.02926549     0.91550
C1293       C  0.87285441  0.77971205  0.42817043     0.91570
C1294       C  0.87239480  0.72463427  0.07528448     0.91740
C1295       C  0.82467281  0.82590557  0.32615720     0.01370
C1296       C  0.92495275  0.92745910  0.07605566     0.01370
O1297       O  0.55534898  0.90884127  0.22949631    -0.70570
O1298       O  0.94332192  0.90956759  0.27238233    -0.70600
O1299       O  0.52022324  0.91109866  0.30606934    -0.70650
O1300       O  0.97875118  0.91119662  0.19593626    -0.70700
O1301       O  0.97789068  0.84182126  0.19428520    -0.70630
O1302       O  0.52071393  0.84171926  0.30810034    -0.70610
O1303       O  0.94477677  0.84017358  0.27180748    -0.70590
O1304       O  0.55351745  0.83944878  0.23066607    -0.70650
Ni1305     Ni  0.99965820  0.91295377  0.25079687     1.25410
Ni1306     Ni  0.99959482  0.83859654  0.25102121     1.25360
C1307       C  0.57265842  0.87334420  0.22295380     0.91610
C1308       C  0.92575871  0.87416463  0.27918474     0.91550
C1309       C  0.52761710  0.87726566  0.32542855     0.91570
C1310       C  0.97127058  0.87726784  0.17670504     0.91740
C1311       C  0.67545823  0.67501517  0.32578826     0.01370
C1312       C  0.57446278  0.92726457  0.42608820     0.01370
C1313       C  0.67239973  0.82394856  0.17567282     0.01370
C1314       C  0.57603991  0.57394819  0.07324607     0.01370
O1315       O  0.59374516  0.73170104  0.44369740    -0.70570
O1316       O  0.58520662  0.76717170  0.05930339    -0.70600
O1317       O  0.59088848  0.80772395  0.47998101    -0.70650
O1318       O  0.58676891  0.69302450  0.01902188    -0.70700
O1319       O  0.65610713  0.69538491  0.01802340    -0.70630
O1320       O  0.66029512  0.81062718  0.47854925    -0.70610
O1321       O  0.65445897  0.77043043  0.05590581    -0.70590
O1322       O  0.66320287  0.73338248  0.44505835    -0.70650
Ni1323     Ni  0.59049143  0.75267376  0.50023435     1.25410
Ni1324     Ni  0.65539997  0.75340595  0.99982802     1.25360
C1325       C  0.62906235  0.72514888  0.42615639     0.91610
C1326       C  0.62084355  0.77532259  0.07621904     0.91550
C1327       C  0.62452528  0.82744580  0.47234665     0.91570
C1328       C  0.62182174  0.67563359  0.02507005     0.91740
C1329       C  0.99824096  0.50326778  0.00000628     0.01370
C1330       C  0.74954999  0.75044744  0.25048832     0.01370
C1331       C  0.58365224  0.61391178  0.04897680    -0.12570
C1332       C  0.62101491  0.63279228  0.04210464    -0.27750
H1333       H  0.55526322  0.62955062  0.03901857     0.16450
H1334       H  0.65013950  0.61858612  0.05175887     0.17030
C1335       C  0.54989150  0.54629620  0.04663766    -0.09410
C1336       C  0.52809955  0.52423191  0.02470185    -0.10970
C1337       C  0.66294417  0.80027033  0.13549500    -0.12570
C1338       C  0.62456364  0.79229417  0.11906131    -0.27750
H1339       H  0.69039760  0.79118726  0.11789430     0.16450
H1340       H  0.59627208  0.80072009  0.13542330     0.17030
C1341       C  0.69962755  0.79742181  0.20201991    -0.09410
C1342       C  0.72227215  0.77631259  0.22381914    -0.10970
C1343       C  0.58323450  0.88737239  0.44983769    -0.12570
C1344       C  0.62117571  0.86976046  0.45511854    -0.27750
H1345       H  0.55569702  0.87060696  0.46034663     0.16450
H1346       H  0.64945436  0.88501024  0.44463090     0.17030
C1347       C  0.52518930  0.97416579  0.47510408    -0.09410
C1348       C  0.54737036  0.95329370  0.45280418    -0.10970
C1349       C  0.66844487  0.69892998  0.36614471    -0.12570
C1350       C  0.63110473  0.70663387  0.38403869    -0.27750
H1351       H  0.69670917  0.70829897  0.38257448     0.16450
H1352       H  0.60213421  0.69731596  0.36911862     0.17030
C1353       C  0.70199535  0.70141487  0.29886793    -0.09410
C1354       C  0.72355069  0.72351902  0.27712339    -0.10970
C1355       C  0.61480698  0.87037816  0.20515477    -0.12570
C1356       C  0.63282432  0.83255152  0.20000089    -0.27750
H1357       H  0.62951300  0.89872663  0.19407924     0.16450
H1358       H  0.61662432  0.80493047  0.21115466     0.17030
C1359       C  0.54529588  0.88044081  0.36792093    -0.12570
C1360       C  0.55098693  0.91843342  0.38571876    -0.27750
H1361       H  0.55553836  0.85208344  0.38320384     0.16450
H1362       H  0.54059661  0.94603614  0.36898348     0.17030
C1363       C  0.94854288  0.91840031  0.11627639    -0.12570
C1364       C  0.95384360  0.88036539  0.13406192    -0.27750
H1365       H  0.95898017  0.94596666  0.13315714     0.16450
H1366       H  0.94336988  0.85205756  0.11871422     0.17030
C1367       C  0.95140357  0.95489011  0.04996708    -0.09410
C1368       C  0.97278534  0.97744378  0.02844591    -0.10970
C1369       C  0.86510081  0.83386599  0.30276501    -0.12570
C1370       C  0.88338001  0.87153394  0.29676020    -0.27750
H1371       H  0.88144846  0.80595660  0.29275404     0.16450
H1372       H  0.86852567  0.90017011  0.30670253     0.17030
C1373       C  0.79786197  0.79930592  0.29917636    -0.09410
C1374       C  0.77600339  0.77745671  0.27711431    -0.10970
C1375       C  0.87889873  0.86937252  0.04649064    -0.12570
C1376       C  0.91664487  0.88776038  0.05163137    -0.27750
H1377       H  0.85044598  0.88398330  0.05725158     0.16450
H1378       H  0.94437666  0.87166332  0.04078243     0.17030
C1379       C  0.87018322  0.79712554  0.38552201    -0.12570
C1380       C  0.83258572  0.80241796  0.36673999    -0.27750
H1381       H  0.89877410  0.80753644  0.37084029     0.16450
H1382       H  0.80469554  0.79203872  0.38294526     0.17030
C1383       C  0.83212800  0.69913037  0.13506644    -0.12570
C1384       C  0.86980160  0.70642857  0.11747461    -0.27750
H1385       H  0.80411074  0.70856069  0.11834198     0.16450
H1386       H  0.89855501  0.69710909  0.13271852     0.17030
C1387       C  0.79784670  0.70214269  0.20215310    -0.09410
C1388       C  0.77616737  0.72409289  0.22390433    -0.10970
C1389       C  0.69619631  0.86406102  0.16727048    -0.12570
C1390       C  0.70232941  0.88209836  0.12949281    -0.27750
H1391       H  0.70668548  0.88039991  0.19522225     0.16510
H1392       H  0.69200927  0.86725010  0.10078382     0.17030
C1393       C  0.86589150  0.95406773  0.12230205    -0.12570
C1394       C  0.88474312  0.95064694  0.08464589    -0.27750
H1395       H  0.88049717  0.94275533  0.15073465     0.16450
H1396       H  0.86862059  0.96199337  0.05692453     0.17030
C1397       C  0.63405353  0.54535516  0.12028428    -0.12570
C1398       C  0.61655666  0.55132514  0.08210222    -0.27750
H1399       H  0.61865282  0.55513981  0.14875304     0.16450
H1400       H  0.63339782  0.54136347  0.05440477     0.17030
C1401       C  0.79543293  0.61648944  0.12979546    -0.12570
C1402       C  0.80104117  0.63504579  0.16750408    -0.27750
H1403       H  0.80557218  0.63126080  0.10108733     0.16450
H1404       H  0.79096071  0.61874961  0.19551724     0.17030
C1405       C  0.80137654  0.86631532  0.33414791    -0.12570
C1406       C  0.79572953  0.88458464  0.37194008    -0.27750
H1407       H  0.79126521  0.88273101  0.30615823     0.16450
H1408       H  0.80579990  0.86966818  0.40065425     0.17030
C1409       C  0.63337881  0.95554684  0.38031101    -0.12570
C1410       C  0.61441242  0.95146253  0.41790055    -0.27750
H1411       H  0.61895334  0.94414915  0.35177896     0.16450
H1412       H  0.63036360  0.96282775  0.44574987     0.17030
C1413       C  0.69867470  0.63461734  0.33387058    -0.12570
C1414       C  0.70424025  0.61629486  0.37165339    -0.27750
H1415       H  0.70875879  0.61823992  0.30590734     0.16450
H1416       H  0.69415306  0.63115688  0.40033072     0.17030
C1417       C  0.91655847  0.61784124  0.44830568    -0.12570
C1418       C  0.87885807  0.63552010  0.45512612    -0.27750
H1419       H  0.94452903  0.63447862  0.45806970     0.16450
H1420       H  0.85014536  0.62036194  0.44548035     0.17030
C1421       C  0.88422621  0.55370529  0.41694744    -0.12570
C1422       C  0.86595513  0.54720327  0.37919472    -0.27750
H1423       H  0.86803125  0.54367071  0.44501836     0.16450
H1424       H  0.88064390  0.55716477  0.35039674     0.17030
C1425       C  0.95133928  0.55121903  0.45172913    -0.09410
C1426       C  0.97333251  0.52999021  0.47402132    -0.10970
C1427       C  0.86488080  0.66778800  0.19902385    -0.12570
C1428       C  0.88366895  0.63033342  0.20395279    -0.27750
H1429       H  0.88099232  0.69571141  0.20971541     0.16450
H1430       H  0.86907151  0.60170657  0.19330195     0.17030
C1431       C  0.61688935  0.62936137  0.29544355    -0.12570
C1432       C  0.63480077  0.66708622  0.30241354    -0.27750
H1433       H  0.63196654  0.60067886  0.30498252     0.16450
H1434       H  0.61827918  0.69501679  0.29265697     0.17030
C1435       C  0.55219353  0.58245214  0.11344690    -0.12570
C1436       C  0.54645526  0.62026794  0.13157250    -0.27750
H1437       H  0.54193112  0.55472272  0.13004027     0.16450
H1438       H  0.55676721  0.64872788  0.11652495     0.17030
C1439       C  0.94782387  0.58536880  0.38434299    -0.12570
C1440       C  0.95399688  0.62297612  0.36609855    -0.27750
H1441       H  0.95779446  0.55741448  0.36797990     0.16450
H1442       H  0.94412407  0.65165355  0.38097818     0.17030
O1443       O  0.94046934  0.58269734  0.73327673    -0.70570
O1444       O  0.55464540  0.58172147  0.77683628    -0.70600
O1445       O  0.97814395  0.58843037  0.80831418    -0.70650
O1446       O  0.51707845  0.56764910  0.70180081    -0.70700
O1447       O  0.52251323  0.63541674  0.68768815    -0.70630
O1448       O  0.98021538  0.65719822  0.80095770    -0.70610
O1449       O  0.55611020  0.64993566  0.76463554    -0.70590
O1450       O  0.94761700  0.65089291  0.72306985    -0.70650
Ni1451     Ni  0.99765644  0.57822959  0.75516685     1.25410
Ni1452     Ni  0.50170861  0.65030411  0.74373333     1.25360
C1453       C  0.92535724  0.61824531  0.72177089     0.91610
C1454       C  0.57348101  0.61735676  0.77862041     0.91550
C1455       C  0.97186280  0.62441136  0.82298893     0.91570
C1456       C  0.52606342  0.59669072  0.67683118     0.91740
C1457       C  0.92311787  0.57958068  0.92549101     0.01370
O1458       O  0.72606088  0.55633005  0.91048742    -0.70570
O1459       O  0.77170378  0.94492022  0.90673074    -0.70600
O1460       O  0.80323927  0.52242044  0.91192678    -0.70650
O1461       O  0.69503231  0.97979354  0.90566250    -0.70700
O1462       O  0.69652069  0.97819375  0.83597402    -0.70630
O1463       O  0.80454259  0.52350847  0.84228871    -0.70610
O1464       O  0.77409385  0.94705187  0.83712136    -0.70590
O1465       O  0.72685440  0.55535523  0.84084727    -0.70650
Ni1466     Ni  0.74998110  0.00100956  0.90964513     1.25410
Ni1467     Ni  0.75221392  0.00145258  0.83501678     1.25360
C1468       C  0.71921898  0.57408454  0.87513245     0.91610
C1469       C  0.77979200  0.92767770  0.87143436     0.91550
C1470       C  0.82208260  0.53047630  0.87782093     0.91570
C1471       C  0.67775107  0.97125969  0.87067208     0.91740
O1472       O  0.72864037  0.94520153  0.59216000    -0.70570
O1473       O  0.77174591  0.55843162  0.59023264    -0.70600
O1474       O  0.80490312  0.98091583  0.59036561    -0.70650
O1475       O  0.69524079  0.52319819  0.58794146    -0.70700
O1476       O  0.69340443  0.52487929  0.65755355    -0.70630
O1477       O  0.80665206  0.98054711  0.66001954    -0.70610
O1478       O  0.77077546  0.55678035  0.65985982    -0.70590
O1479       O  0.72971875  0.94710054  0.66181687    -0.70650
Ni1480     Ni  0.75002597  0.00153192  0.58853855     1.25410
Ni1481     Ni  0.74942711  0.50254008  0.66152312     1.25360
C1482       C  0.72223131  0.92788577  0.62779350     0.91610
C1483       C  0.77840730  0.57581722  0.62586779     0.91550
C1484       C  0.82407222  0.97369435  0.62455435     0.91570
C1485       C  0.67623425  0.53159758  0.62179588     0.91740
C1486       C  0.82595288  0.67421286  0.67744197     0.01370
O1487       O  0.83986336  0.69702181  0.97956169    -0.70570
O1488       O  0.84110069  0.80745706  0.52416807    -0.70600
O1489       O  0.83903657  0.77388787  0.94603780    -0.70650
O1490       O  0.83985389  0.73005913  0.55755477    -0.70700
O1491       O  0.90927808  0.72953975  0.55877772    -0.70630
O1492       O  0.90848369  0.77424732  0.94494975    -0.70610
O1493       O  0.91053436  0.80621619  0.52334948    -0.70590
O1494       O  0.90932389  0.69829500  0.98077763    -0.70650
Ni1495     Ni  0.83697469  0.75324618  0.00107511     1.25410
Ni1496     Ni  0.91140904  0.75295933  0.00152721     1.25360
C1497       C  0.87518382  0.67947494  0.97300987     0.91610
C1498       C  0.87651246  0.82520684  0.53068247     0.91550
C1499       C  0.87318483  0.78090577  0.92705913     0.91570
C1500       C  0.87404852  0.72255816  0.57654359     0.91740
C1501       C  0.82501989  0.82561980  0.82482253     0.01370
C1502       C  0.92483581  0.92697690  0.57619103     0.01370
O1503       O  0.55044052  0.90531029  0.73021735    -0.70570
O1504       O  0.94401693  0.90956014  0.77222785    -0.70600
O1505       O  0.51327431  0.89891179  0.80603149    -0.70650
O1506       O  0.98011803  0.91145694  0.69607061    -0.70700
O1507       O  0.97920326  0.84208074  0.69443696    -0.70630
O1508       O  0.52592320  0.83081435  0.80417424    -0.70610
O1509       O  0.94557280  0.84017043  0.77160450    -0.70590
O1510       O  0.55721746  0.83654149  0.72682668    -0.70650
Ni1511     Ni  0.00061671  0.91308614  0.75119191     1.25410
Ni1512     Ni  0.00054430  0.83873353  0.75131602     1.25360
C1513       C  0.57236718  0.87254514  0.72179051     0.91610
C1514       C  0.92639877  0.87410204  0.77873196     0.91550
C1515       C  0.52747336  0.86634817  0.82324493     0.91570
C1516       C  0.97252983  0.87752786  0.67686079     0.91740
C1517       C  0.67138711  0.67396129  0.82619252     0.01370
C1518       C  0.57932527  0.92380821  0.91833917     0.01370
C1519       C  0.67604103  0.82759006  0.67682825     0.01370
C1520       C  0.57882578  0.58092157  0.56909722     0.01370
O1521       O  0.58476952  0.72958354  0.94339036    -0.70570
O1522       O  0.59342262  0.77363576  0.55695184    -0.70600
O1523       O  0.57797578  0.80430571  0.98471404    -0.70650
O1524       O  0.59382464  0.69772324  0.52027726    -0.70700
O1525       O  0.66335868  0.69858752  0.52197795    -0.70630
O1526       O  0.64716491  0.81130991  0.98309822    -0.70610
O1527       O  0.66284208  0.77556316  0.55529138    -0.70590
O1528       O  0.65389299  0.73579199  0.94353756    -0.70650
Ni1529     Ni  0.58121795  0.74834328  0.00144038     1.25410
Ni1530     Ni  0.66493113  0.75463792  0.50017365     1.25360
C1531       C  0.62025103  0.72534006  0.92503647     0.91610
C1532       C  0.62863747  0.78143345  0.57459353     0.91550
C1533       C  0.61020747  0.82683503  0.98040228     0.91570
C1534       C  0.62847924  0.67990830  0.52790771     0.91740
C1535       C  0.00023692  0.50431788  0.50115584     0.01370
C1536       C  0.74883695  0.74901696  0.75168884     0.01370
C1537       C  0.59284089  0.61405297  0.53885413    -0.12570
C1538       C  0.62678611  0.63801663  0.54579775    -0.27750
H1539       H  0.57056338  0.62361500  0.51495695     0.16450
H1540       H  0.65005883  0.62943238  0.56894553     0.17030
C1541       C  0.54799941  0.55358653  0.54730117    -0.09410
C1542       C  0.52578157  0.52981737  0.52766959    -0.10970
C1543       C  0.66809948  0.80403533  0.63632028    -0.12570
C1544       C  0.63066341  0.79840488  0.61744165    -0.27750
H1545       H  0.69608192  0.79385425  0.62018938     0.16450
H1546       H  0.60191819  0.80828954  0.63212119     0.17030
C1547       C  0.70254621  0.80021490  0.70341613    -0.09410
C1548       C  0.72349505  0.77666917  0.72458029    -0.10970
C1549       C  0.60378143  0.88629784  0.93451645    -0.12570
C1550       C  0.60218248  0.87124371  0.97330288    -0.27750
H1551       H  0.62194366  0.86900284  0.91168841     0.16450
H1552       H  0.58372788  0.88716977  0.99670491     0.17030
C1553       C  0.52973770  0.96666754  0.97225746    -0.09410
C1554       C  0.55167166  0.94495881  0.94984282    -0.10970
C1555       C  0.66199249  0.69831886  0.86618598    -0.12570
C1556       C  0.62379354  0.70626954  0.88278419    -0.27750
H1557       H  0.68951648  0.70843619  0.88338476     0.16450
H1558       H  0.59548894  0.69629917  0.86702687     0.17030
C1559       C  0.69771066  0.70121057  0.79902399    -0.09410
C1560       C  0.72069273  0.72279514  0.77772434    -0.10970
C1561       C  0.61555116  0.87326295  0.70506709    -0.12570
C1562       C  0.63577660  0.83604131  0.70017422    -0.27750
H1563       H  0.62902071  0.90242457  0.69453403     0.16450
H1564       H  0.62082695  0.80757790  0.71089891     0.17030
C1565       C  0.54765346  0.87210673  0.86465402    -0.12570
C1566       C  0.55224844  0.91129620  0.88097238    -0.27750
H1567       H  0.56119531  0.84503187  0.87964587     0.16450
H1568       H  0.53734966  0.93733071  0.86519386     0.17030
C1569       C  0.94841392  0.91843267  0.61662337    -0.12570
C1570       C  0.95476142  0.88050030  0.63430618    -0.27750
H1571       H  0.95837167  0.94617399  0.63350213     0.16450
H1572       H  0.94490089  0.85200180  0.61891718     0.17030
C1573       C  0.95131442  0.95428977  0.54985901    -0.09410
C1574       C  0.97264953  0.97701545  0.52838540    -0.10970
C1575       C  0.86528719  0.83357083  0.80108073    -0.12570
C1576       C  0.88378203  0.87128925  0.79570875    -0.27750
H1577       H  0.88162257  0.80571527  0.79091917     0.16450
H1578       H  0.86898300  0.89984265  0.80596852     0.17030
C1579       C  0.79798203  0.79809828  0.79912331    -0.09410
C1580       C  0.77547472  0.77548213  0.77859473    -0.10970
C1581       C  0.87910825  0.86780425  0.54782619    -0.12570
C1582       C  0.91666572  0.88684835  0.55221193    -0.27750
H1583       H  0.85066140  0.88215044  0.55896043     0.16450
H1584       H  0.94442548  0.87096790  0.54112934     0.17030
C1585       C  0.87082816  0.79773992  0.88426095    -0.12570
C1586       C  0.83319306  0.80306015  0.86570400    -0.27750
H1587       H  0.89947003  0.80757456  0.86928339     0.16450
H1588       H  0.80529231  0.79317398  0.88221268     0.17030
C1589       C  0.83440588  0.69909367  0.63780258    -0.12570
C1590       C  0.87186520  0.70443518  0.61904158    -0.27750
H1591       H  0.80661423  0.71053751  0.62199711     0.16450
H1592       H  0.90041165  0.69324173  0.63336690     0.17030
C1593       C  0.79958790  0.70069293  0.70501001    -0.09410
C1594       C  0.77632206  0.72216436  0.72590914    -0.10970
C1595       C  0.69936585  0.86777885  0.66876396    -0.12570
C1596       C  0.70497977  0.88557873  0.63076507    -0.27750
H1597       H  0.70945619  0.88437730  0.69669331     0.16510
H1598       H  0.69486926  0.87044904  0.60213431     0.17030
C1599       C  0.86645564  0.95621870  0.62207045    -0.12570
C1600       C  0.88449068  0.95025599  0.58430228    -0.27750
H1601       H  0.88148468  0.94630661  0.65080783     0.16450
H1602       H  0.86798423  0.96028759  0.55629997     0.17030
C1603       C  0.63474514  0.55105949  0.61831995    -0.12570
C1604       C  0.61600092  0.55379576  0.58038960    -0.27750
H1605       H  0.62196446  0.56610764  0.64573406     0.16450
H1606       H  0.63018770  0.53798683  0.55393841     0.17030
C1607       C  0.79625853  0.61791245  0.62920229    -0.12570
C1608       C  0.80098012  0.63544093  0.66750087    -0.27750
H1609       H  0.80789070  0.63276583  0.60111450     0.16450
H1610       H  0.78934829  0.61901423  0.69483046     0.17030
C1611       C  0.80156856  0.86599394  0.83208683    -0.12570
C1612       C  0.79668783  0.88514174  0.86948627    -0.27750
H1613       H  0.79104946  0.88177167  0.80387325     0.16450
H1614       H  0.80696257  0.87079942  0.89842460     0.17030
C1615       C  0.63666186  0.95074190  0.87157320    -0.12570
C1616       C  0.61181985  0.95548615  0.90519119    -0.27750
H1617       H  0.62942115  0.92772449  0.84772980     0.16450
H1618       H  0.61985780  0.97960684  0.92781638     0.17030
C1619       C  0.69670053  0.63507661  0.83518891    -0.12570
C1620       C  0.70119859  0.61631009  0.87282380    -0.27750
H1621       H  0.70853377  0.61940146  0.80751081     0.16450
H1622       H  0.68930750  0.63037062  0.90120775     0.17030
C1623       C  0.91535803  0.61980821  0.94865670    -0.12570
C1624       C  0.87762998  0.63738123  0.95522006    -0.27750
H1625       H  0.94337803  0.63643468  0.95828956     0.16450
H1626       H  0.84890547  0.62222646  0.94560288     0.17030
C1627       C  0.88269216  0.55570456  0.91782594    -0.12570
C1628       C  0.86423605  0.54900815  0.88023154    -0.27750
H1629       H  0.86657366  0.54567954  0.94594674     0.16450
H1630       H  0.87886046  0.55895289  0.85139168     0.17030
C1631       C  0.94998472  0.55291387  0.95228220    -0.09410
C1632       C  0.97166398  0.53052334  0.97387056    -0.10970
C1633       C  0.86624253  0.66270867  0.70039852    -0.12570
C1634       C  0.88210330  0.62354247  0.70595700    -0.27750
H1635       H  0.88466564  0.68931332  0.71065152     0.16450
H1636       H  0.86471846  0.59594262  0.69693119     0.17030
C1637       C  0.61515191  0.62306597  0.79814398    -0.12570
C1638       C  0.63161173  0.66221035  0.80250248    -0.27750
H1639       H  0.63073604  0.59591719  0.81086517     0.16450
H1640       H  0.61421023  0.68864990  0.79044008     0.17030
C1641       C  0.55914264  0.60322472  0.60637203    -0.12570
C1642       C  0.54059453  0.58124155  0.63616921    -0.27750
H1643       H  0.56135917  0.63688799  0.60961360     0.16450
H1644       H  0.53895015  0.54762397  0.63192899     0.17030
C1645       C  0.94637569  0.58774336  0.88505315    -0.12570
C1646       C  0.95356385  0.62507402  0.86561813    -0.27750
H1647       H  0.95597936  0.55906177  0.86980679     0.16450
H1648       H  0.94412938  0.65444333  0.87939272     0.17030
loop_ 
_geom_bond_atom_site_label_1 
_geom_bond_atom_site_label_2 
_geom_bond_distance 
_geom_bond_site_symmetry_2 
_ccdc_geom_bond_type 
O1           Ni9   1.942       .  S
O1           C11   1.287       .  A
O2         Ni833   1.964   1_455  S
O2           C12   1.293       .  A
O3           Ni9   1.885       .  S
O3           C13   1.274       .  A
O4         Ni833   1.853   1_455  S
O4           C14   1.263       .  A
O5          Ni10   1.973       .  S
O5           C14   1.296       .  A
O6         Ni834   1.945       .  S
O6           C13   1.288       .  A
O7          Ni10   1.872       .  S
O7           C12   1.269       .  A
O8         Ni834   1.880       .  S
O8           C11   1.273       .  A
Ni9         O826   1.943       .  S
Ni9         O828   1.886       .  S
Ni9        Ni834   2.387       .  S
Ni10        O830   1.973   1_455  S
Ni10        O832   1.870   1_455  S
Ni10       Ni833   2.384   1_455  S
C11         C192   1.475       .  S
C12         C195   1.486       .  S
C13         C204   1.479       .  S
C14         C200   1.470       .  S
C15         C181   1.520       .  S
C15         C185   1.520       .  S
C15         C203   1.524       .  S
C15         C189   1.485       .  S
O16        Ni436   1.939   1_545  S
O16          C26   1.286       .  A
O17         Ni24   1.940       .  S
O17          C27   1.287       .  A
O18        Ni436   1.884   1_545  S
O18          C28   1.275       .  A
O19         Ni24   1.884       .  S
O19          C29   1.274       .  A
O20         Ni25   1.940       .  S
O20          C29   1.287       .  A
O21        Ni437   1.939   1_545  S
O21          C28   1.286       .  A
O22         Ni25   1.886       .  S
O22          C27   1.274       .  A
O23        Ni437   1.878   1_545  S
O23          C26   1.273       .  A
Ni24        O428   1.940       .  S
Ni24        O430   1.883       .  S
Ni24        Ni25   2.388       .  S
Ni25        O433   1.940       .  S
Ni25        O435   1.884       .  S
C26         C178   1.473       .  S
C27         C170   1.476       .  S
C28         C186   1.475       .  S
C29         C173   1.476       .  S
O30         Ni38   1.940       .  S
O30          C40   1.287       .  A
O31        Ni450   1.940       .  S
O31          C41   1.286       .  A
O32         Ni38   1.885       .  S
O32          C42   1.274       .  A
O33        Ni450   1.883       .  S
O33          C43   1.274       .  A
O34         Ni39   1.942       .  S
O34          C43   1.287       .  A
O35        Ni451   1.940       .  S
O35          C42   1.287       .  A
O36         Ni39   1.882       .  S
O36          C41   1.274       .  A
O37        Ni451   1.883       .  S
O37          C40   1.274       .  A
Ni38        O443   1.940       .  S
Ni38        O445   1.884       .  S
Ni38       Ni451   2.388       .  S
Ni39        O447   1.941   1_545  S
Ni39        O449   1.886   1_545  S
Ni39       Ni450   2.388       .  S
C40         C154   1.474       .  S
C41         C165   1.475       .  S
C42         C157   1.476       .  S
C43         C161   1.477       .  S
C44         C147   1.520       .  S
C44         C166   1.519       .  S
C44         C191   1.520       .  S
C44         C151   1.485       .  S
O45         Ni53   1.939       .  S
O45          C55   1.286       .  A
O46        Ni259   1.943   1_554  S
O46          C56   1.287       .  A
O47         Ni53   1.884       .  S
O47          C57   1.274       .  A
O48        Ni259   1.879   1_554  S
O48          C58   1.273       .  A
O49        Ni260   1.946   1_554  S
O49          C58   1.288       .  A
O50         Ni54   1.939       .  S
O50          C57   1.286       .  A
O51        Ni260   1.883   1_554  S
O51          C56   1.274       .  A
O52         Ni54   1.883       .  S
O52          C55   1.274       .  A
Ni53        O252   1.938       .  S
Ni53        O254   1.884       .  S
Ni53        Ni54   2.388       .  S
Ni54        O255   1.940       .  S
Ni54        O257   1.881       .  S
C55         C182   1.474       .  S
C56         C139   1.477       .  S
C57         C143   1.476       .  S
C58         C148   1.477       .  S
C59         C133   1.523       .  S
C59         C144   1.520       .  S
C59         C169   1.522       .  S
C59         C137   1.486       .  S
C60         C127   1.524       .  S
C60         C140   1.521       .  S
C60         C158   1.521       .  S
C60         C131   1.487       .  S
O61        Ni893   1.943       .  S
O61          C71   1.287       .  A
O62         Ni69   1.943       .  S
O62          C72   1.287       .  A
O63        Ni893   1.879       .  S
O63          C73   1.273       .  A
O64         Ni69   1.885       .  S
O64          C74   1.274       .  A
O65         Ni70   1.944       .  S
O65          C74   1.288       .  A
O66        Ni894   1.944       .  S
O66          C73   1.288       .  A
O67         Ni70   1.885       .  S
O67          C72   1.274       .  A
O68        Ni894   1.883       .  S
O68          C71   1.274       .  A
Ni69        O885   1.943       .  S
Ni69        O887   1.886       .  S
Ni69        Ni70   2.387       .  S
Ni70        O890   1.944       .  S
Ni70        O892   1.886       .  S
C71         C119   1.477       .  S
C72         C134   1.478       .  S
C73         C123   1.475       .  S
C74         C128   1.478       .  S
C75         C113   1.521       .  S
C75         C177   1.516       .  S
C75         C196   1.530       .  S
C75         C117   1.489       .  S
C76         C107   1.519       .  S
C76         C124   1.521       .  S
C76         C174   1.522       .  S
C76         C112   1.485       .  S
C77         C101   1.519       .  S
C77         C120   1.523       .  S
C77         C153   1.521       .  S
C77         C105   1.484       .  S
C78          C95   1.507       .  S
C78         C162   1.522       .  S
C78         C199   1.530       .  S
C78          C99   1.489       .  S
O79         Ni87   1.933       .  S
O79          C89   1.284       .  A
O80        Ni293   1.936   1_554  S
O80          C90   1.285       .  A
O81         Ni87   1.889       .  S
O81          C91   1.276       .  A
O82        Ni293   1.882   1_554  S
O82          C92   1.275       .  A
O83         Ni88   1.930   1_554  S
O83          C92   1.283       .  A
O84        Ni294   1.931       .  S
O84          C91   1.284       .  A
O85         Ni88   1.888   1_554  S
O85          C90   1.276       .  A
O86        Ni294   1.894       .  S
O86          C89   1.277       .  A
Ni87        O286   1.934       .  S
Ni87        O288   1.884       .  S
Ni87       Ni294   2.390       .  S
Ni88        O290   1.930       .  S
Ni88        O292   1.893       .  S
Ni88       Ni293   2.390       .  S
C89         C114   1.477       .  S
C90         C102   1.474       .  S
C91         C108   1.471       .  S
C92          C96   1.464       .  S
C93         C924   1.480   1_566  S
C93        C1553   1.498       .  S
C93         C544   1.478   1_556  S
C93         C396   1.484   1_565  S
C94         C106   1.478       .  S
C94         C118   1.484       .  S
C94         C138   1.481       .  S
C94         C152   1.479       .  S
C95          C96   1.348       .  D
C95          H97   1.090       .  S
C96          H98   1.086       .  S
C99         C100   1.214       .  T
C100        C917   1.478   1_455  S
C101        C102   1.354       .  D
C101        H103   1.088       .  S
C102        H104   1.085       .  S
C105        C106   1.214       .  T
C107        C108   1.354       .  D
C107        H109   1.088       .  S
C108        H110   1.085       .  S
C111       C1535   1.480       .  S
C111        C112   1.215       .  T
C113        C114   1.353       .  D
C113        H115   1.088       .  S
C114        H116   1.085       .  S
C117        C118   1.217       .  T
C119        C120   1.358       .  D
C119        H121   1.085       .  S
C120        H122   1.088       .  S
C123        C124   1.359       .  D
C123        H125   1.085       .  S
C124        H126   1.088       .  S
C127        C128   1.359       .  D
C127        H129   1.088       .  S
C128        H130   1.085       .  S
C131        C132   1.216       .  T
C132        C505   1.482   1_554  S
C133        C134   1.358       .  D
C133        H135   1.088       .  S
C134        H136   1.085       .  S
C137        C138   1.216       .  T
C139        C140   1.358       .  D
C139        H141   1.085       .  S
C140        H142   1.088       .  S
C143        C144   1.356       .  D
C143        H145   1.085       .  S
C144        H146   1.088       .  S
C147        C148   1.358       .  D
C147        H149   1.088       .  S
C148        H150   1.085       .  S
C151        C152   1.215       .  T
C153        C154   1.357       .  D
C153        H155   1.088       .  S
C154        H156   1.085       .  S
C157        C158   1.357       .  D
C157        H159   1.085       .  S
C158        H160   1.088       .  S
C161        C162   1.356       .  D
C161        H163   1.084       .  S
C162        H164   1.088       .  S
C165        C166   1.356       .  D
C165        H167   1.085       .  S
C166        H168   1.088       .  S
C169        C170   1.357       .  D
C169        H171   1.088       .  S
C170        H172   1.085       .  S
C173        C174   1.357       .  D
C173        H175   1.085       .  S
C174        H176   1.088       .  S
C177        C178   1.356       .  D
C177        H179   1.088       .  S
C178        H180   1.085       .  S
C181        C182   1.356       .  D
C181        H183   1.088       .  S
C182        H184   1.085       .  S
C185        C186   1.356       .  D
C185        H187   1.088       .  S
C186        H188   1.085       .  S
C189        C190   1.215       .  T
C190        C299   1.480       .  S
C191        C192   1.358       .  D
C191        H193   1.088       .  S
C192        H194   1.085       .  S
C195        C196   1.368       .  D
C195        H197   1.085       .  S
C196        H198   1.087       .  S
C199        C200   1.329       .  D
C199        H201   1.088       .  S
C200        H202   1.089       .  S
C203        C204   1.359       .  D
C203        H205   1.088       .  S
C204        H206   1.085       .  S
O207       Ni215   1.940       .  S
O207        C217   1.287       .  A
O208      Ni1039   1.968   1_455  S
O208        C218   1.294       .  A
O209       Ni215   1.881       .  S
O209        C219   1.274       .  A
O210      Ni1039   1.852   1_455  S
O210        C220   1.262       .  A
O211       Ni216   1.976       .  S
O211        C220   1.296       .  A
O212      Ni1040   1.942       .  S
O212        C219   1.287       .  A
O213       Ni216   1.870       .  S
O213        C218   1.268       .  A
O214      Ni1040   1.881       .  S
O214        C217   1.273       .  A
Ni215      O1032   1.940       .  S
Ni215      O1034   1.880       .  S
Ni215     Ni1040   2.388       .  S
Ni216      O1036   1.976   1_455  S
Ni216      O1038   1.868   1_455  S
Ni216     Ni1039   2.383   1_455  S
C217        C398   1.474       .  S
C218        C401   1.487       .  S
C219        C410   1.476       .  S
C220        C406   1.470       .  S
C221        C387   1.527       .  S
C221        C391   1.521       .  S
C221        C409   1.520       .  S
C221        C395   1.489       .  S
O222       Ni642   1.935       .  S
O222        C232   1.285       .  A
O223       Ni230   1.934       .  S
O223        C233   1.284       .  A
O224       Ni642   1.887       .  S
O224        C234   1.275       .  A
O225       Ni230   1.891       .  S
O225        C235   1.276       .  A
O226       Ni231   1.933       .  S
O226        C235   1.284       .  A
O227       Ni643   1.937       .  S
O227        C234   1.286       .  A
O228       Ni231   1.881       .  S
O228        C233   1.274       .  A
O229       Ni643   1.878       .  S
O229        C232   1.274       .  A
Ni230       O634   1.934       .  S
Ni230       O636   1.889       .  S
Ni230      Ni231   2.390       .  S
Ni231       O639   1.936       .  S
Ni231       O641   1.880       .  S
C232        C384   1.470       .  S
C233        C376   1.466       .  S
C234        C392   1.474       .  S
C235        C379   1.473       .  S
O236       Ni244   1.938       .  S
O236        C246   1.286       .  A
O237       Ni656   1.941       .  S
O237        C247   1.287       .  A
O238       Ni244   1.887       .  S
O238        C248   1.275       .  A
O239       Ni656   1.884       .  S
O239        C249   1.274       .  A
O240       Ni245   1.946       .  S
O240        C249   1.288       .  A
O241       Ni657   1.944       .  S
O241        C248   1.287       .  A
O242       Ni245   1.882       .  S
O242        C247   1.274       .  A
O243       Ni657   1.880       .  S
O243        C246   1.273       .  A
Ni244       O649   1.938       .  S
Ni244       O651   1.886       .  S
Ni244      Ni657   2.388       .  S
Ni245       O653   1.946   1_545  S
Ni245       O655   1.884   1_545  S
Ni245      Ni656   2.387       .  S
C246        C360   1.472       .  S
C247        C371   1.475       .  S
C248        C363   1.481       .  S
C249        C367   1.480       .  S
C250        C353   1.519       .  S
C250        C372   1.520       .  S
C250        C397   1.520       .  S
C250        C357   1.483       .  S
O251       Ni259   1.943       .  S
O251        C261   1.288       .  A
O252        C262   1.286       .  A
O253       Ni259   1.880       .  S
O253        C263   1.273       .  A
O254        C264   1.274       .  A
O255        C264   1.286       .  A
O256       Ni260   1.948       .  S
O256        C263   1.288       .  A
O257        C262   1.274       .  A
O258       Ni260   1.889       .  S
O258        C261   1.274       .  A
Ni259      Ni260   2.387       .  S
C261        C388   1.478       .  S
C262        C345   1.473       .  S
C263        C349   1.480       .  S
C264        C354   1.475       .  S
C265        C339   1.531       .  S
C265        C350   1.523       .  S
C265        C375   1.509       .  S
C265        C343   1.495       .  S
C266        C333   1.528       .  S
C266        C346   1.517       .  S
C266        C364   1.524       .  S
C266        C337   1.491       .  S
O267      Ni1099   1.941       .  S
O267        C277   1.287       .  A
O268       Ni275   1.976       .  S
O268        C278   1.297       .  A
O269      Ni1099   1.876       .  S
O269        C279   1.272       .  A
O270       Ni275   1.867       .  S
O270        C280   1.268       .  A
O271       Ni276   1.967       .  S
O271        C280   1.294       .  A
O272      Ni1100   1.943       .  S
O272        C279   1.287       .  A
O273       Ni276   1.854       .  S
O273        C278   1.262       .  A
O274      Ni1100   1.883       .  S
O274        C277   1.274       .  A
Ni275      O1091   1.975       .  S
Ni275      O1093   1.869       .  S
Ni275      Ni276   2.383       .  S
Ni276      O1096   1.968       .  S
Ni276      O1098   1.845       .  S
C277        C325   1.476       .  S
C278        C340   1.472       .  S
C279        C329   1.474       .  S
C280        C334   1.485       .  S
C281        C319   1.520       .  S
C281        C383   1.515       .  S
C281        C402   1.531       .  S
C281        C323   1.489       .  S
C282        C313   1.517       .  S
C282        C330   1.519       .  S
C282        C380   1.520       .  S
C282        C318   1.480       .  S
C283        C307   1.518       .  S
C283        C326   1.522       .  S
C283        C359   1.518       .  S
C283        C311   1.481       .  S
C284        C301   1.508       .  S
C284        C368   1.524       .  S
C284        C405   1.530       .  S
C284        C305   1.491       .  S
O285       Ni293   1.935       .  S
O285        C295   1.284       .  A
O286        C296   1.285       .  A
O287       Ni293   1.886       .  S
O287        C297   1.275       .  A
O288        C298   1.276       .  A
O289       Ni294   1.929       .  S
O289        C298   1.283       .  A
O290        C297   1.284       .  A
O291       Ni294   1.888       .  S
O291        C296   1.276       .  A
O292        C295   1.277       .  A
C295        C320   1.477       .  S
C296        C308   1.474       .  S
C297        C314   1.469       .  S
C298        C302   1.464       .  S
C299       C1130   1.476       .  S
C299       C1347   1.476   1_545  S
C299        C750   1.484   1_545  S
C300        C312   1.475       .  S
C300        C324   1.484       .  S
C300        C344   1.485       .  S
C300        C358   1.477       .  S
C301        C302   1.348       .  D
C301        H303   1.090       .  S
C302        H304   1.086       .  S
C305        C306   1.215       .  T
C306       C1123   1.480   1_455  S
C307        C308   1.353       .  D
C307        H309   1.088       .  S
C308        H310   1.085       .  S
C311        C312   1.212       .  T
C313        C314   1.354       .  D
C313        H315   1.088       .  S
C314        H316   1.085       .  S
C317       C1329   1.475   1_456  S
C317        C318   1.212       .  T
C319        C320   1.352       .  D
C319        H321   1.088       .  S
C320        H322   1.085       .  S
C323        C324   1.217       .  T
C325        C326   1.358       .  D
C325        H327   1.085       .  S
C326        H328   1.088       .  S
C329        C330   1.358       .  D
C329        H331   1.085       .  S
C330        H332   1.088       .  S
C333        C334   1.368       .  D
C333        H335   1.088       .  S
C334        H336   1.085       .  S
C337        C338   1.218       .  T
C338        C711   1.485       .  S
C339        C340   1.329       .  D
C339        H341   1.088       .  S
C340        H342   1.089       .  S
C343        C344   1.218       .  T
C345        C346   1.356       .  D
C345        H347   1.085       .  S
C346        H348   1.088       .  S
C349        C350   1.358       .  D
C349        H351   1.083       .  S
C350        H352   1.088       .  S
C353        C354   1.356       .  D
C353        H355   1.088       .  S
C354        H356   1.085       .  S
C357        C358   1.214       .  T
C359        C360   1.356       .  D
C359        H361   1.088       .  S
C360        H362   1.085       .  S
C363        C364   1.357       .  D
C363        H365   1.085       .  S
C364        H366   1.088       .  S
C367        C368   1.357       .  D
C367        H369   1.084       .  S
C368        H370   1.088       .  S
C371        C372   1.357       .  D
C371        H373   1.085       .  S
C372        H374   1.088       .  S
C375        C376   1.351       .  D
C375        H377   1.089       .  S
C376        H378   1.086       .  S
C379        C380   1.354       .  D
C379        H381   1.085       .  S
C380        H382   1.088       .  S
C383        C384   1.355       .  D
C383        H385   1.088       .  S
C384        H386   1.085       .  S
C387        C388   1.360       .  D
C387        H389   1.088       .  S
C388        H390   1.085       .  S
C391        C392   1.355       .  D
C391        H393   1.088       .  S
C392        H394   1.085       .  S
C395        C396   1.217       .  T
C397        C398   1.357       .  D
C397        H399   1.088       .  S
C398        H400   1.085       .  S
C401        C402   1.369       .  D
C401        H403   1.085       .  S
C402        H404   1.087       .  S
C405        C406   1.329       .  D
C405        H407   1.088       .  S
C406        H408   1.089       .  S
C409        C410   1.357       .  D
C409        H411   1.088       .  S
C410        H412   1.085       .  S
O413       Ni421   1.941       .  S
O413        C423   1.287       .  A
O414      Ni1245   1.937       .  S
O414        C424   1.286       .  A
O415       Ni421   1.885       .  S
O415        C425   1.274       .  A
O416      Ni1245   1.884       .  S
O416        C426   1.274       .  A
O417       Ni422   1.939       .  S
O417        C426   1.286       .  A
O418      Ni1246   1.944       .  S
O418        C425   1.288       .  A
O419       Ni422   1.885       .  S
O419        C424   1.275       .  A
O420      Ni1246   1.882       .  S
O420        C423   1.274       .  A
Ni421      O1238   1.941       .  S
Ni421      O1240   1.886       .  S
Ni421     Ni1246   2.387       .  S
Ni422      O1242   1.939   1_455  S
Ni422      O1244   1.885   1_455  S
Ni422     Ni1245   2.388       .  S
C423        C604   1.475       .  S
C424        C607   1.474       .  S
C425        C616   1.478       .  S
C426        C612   1.474       .  S
C427        C593   1.520       .  S
C427        C597   1.519       .  S
C427        C615   1.524       .  S
C427        C601   1.485       .  S
O428        C438   1.286       .  A
O429       Ni436   1.939       .  S
O429        C439   1.286       .  A
O430        C440   1.274       .  A
O431       Ni436   1.884       .  S
O431        C441   1.274       .  A
O432       Ni437   1.939       .  S
O432        C441   1.286       .  A
O433        C440   1.286       .  A
O434       Ni437   1.880       .  S
O434        C439   1.274       .  A
O435        C438   1.274       .  A
Ni436      Ni437   2.388       .  S
C438        C590   1.476       .  S
C439        C582   1.474       .  S
C440        C598   1.476       .  S
C441        C585   1.475       .  S
O442       Ni450   1.941   1_565  S
O442        C452   1.287       .  A
O443        C453   1.286       .  A
O444       Ni450   1.884   1_565  S
O444        C454   1.274       .  A
O445        C455   1.274       .  A
O446       Ni451   1.940       .  S
O446        C455   1.286       .  A
O447        C454   1.287       .  A
O448       Ni451   1.883       .  S
O448        C453   1.274       .  A
O449        C452   1.274       .  A
C452        C566   1.477       .  S
C453        C577   1.475       .  S
C454        C569   1.476       .  S
C455        C573   1.475       .  S
C456        C559   1.518       .  S
C456        C578   1.520       .  S
C456        C603   1.520       .  S
C456        C563   1.483       .  S
O457       Ni465   1.938       .  S
O457        C467   1.286       .  A
O458       Ni671   1.938       .  S
O458        C468   1.286       .  A
O459       Ni465   1.888       .  S
O459        C469   1.275       .  A
O460       Ni671   1.881       .  S
O460        C470   1.274       .  A
O461       Ni672   1.941       .  S
O461        C470   1.286       .  A
O462       Ni466   1.939       .  S
O462        C469   1.286       .  A
O463       Ni672   1.875       .  S
O463        C468   1.273       .  A
O464       Ni466   1.883       .  S
O464        C467   1.274       .  A
Ni465       O664   1.937       .  S
Ni465       O666   1.889       .  S
Ni465      Ni466   2.388       .  S
Ni466       O667   1.941       .  S
Ni466       O669   1.881       .  S
C467        C594   1.474       .  S
C468        C551   1.472       .  S
C469        C555   1.476       .  S
C470        C560   1.475       .  S
C471        C545   1.519       .  S
C471        C556   1.521       .  S
C471        C581   1.518       .  S
C471        C549   1.481       .  S
C472        C539   1.520       .  S
C472        C552   1.514       .  S
C472        C570   1.522       .  S
C472        C543   1.484       .  S
O473      Ni1305   1.941   1_455  S
O473        C483   1.287       .  A
O474       Ni481   1.940       .  S
O474        C484   1.287       .  A
O475      Ni1305   1.879   1_455  S
O475        C485   1.273       .  A
O476       Ni481   1.879       .  S
O476        C486   1.273       .  A
O477       Ni482   1.942       .  S
O477        C486   1.287       .  A
O478      Ni1306   1.945   1_455  S
O478        C485   1.288       .  A
O479       Ni482   1.880       .  S
O479        C484   1.273       .  A
O480      Ni1306   1.885   1_455  S
O480        C483   1.274       .  A
Ni481      O1297   1.939       .  S
Ni481      O1299   1.879       .  S
Ni481      Ni482   2.388       .  S
Ni482      O1302   1.942       .  S
Ni482      O1304   1.879       .  S
C483        C531   1.476       .  S
C484        C546   1.474       .  S
C485        C535   1.476       .  S
C486        C540   1.475       .  S
C487        C525   1.520       .  S
C487        C589   1.520       .  S
C487        C608   1.520       .  S
C487        C529   1.480       .  S
C488        C519   1.519       .  S
C488        C536   1.521       .  S
C488        C586   1.521       .  S
C488        C524   1.485       .  S
C489        C513   1.522       .  S
C489        C532   1.523       .  S
C489        C565   1.522       .  S
C489        C517   1.485       .  S
C490        C507   1.519       .  S
C490        C574   1.521       .  S
C490        C611   1.519       .  S
C490        C511   1.480       .  S
O491       Ni499   1.932       .  S
O491        C501   1.285       .  A
O492       Ni705   1.940   1_554  S
O492        C502   1.286       .  A
O493       Ni499   1.886       .  S
O493        C503   1.275       .  A
O494       Ni705   1.885   1_554  S
O494        C504   1.275       .  A
O495       Ni500   1.938   1_554  S
O495        C504   1.286       .  A
O496       Ni706   1.933       .  S
O496        C503   1.285       .  A
O497       Ni500   1.887   1_554  S
O497        C502   1.275       .  A
O498       Ni706   1.890       .  S
O498        C501   1.276       .  A
Ni499       O698   1.935       .  S
Ni499       O700   1.882       .  S
Ni499      Ni706   2.390       .  S
Ni500       O702   1.938       .  S
Ni500       O704   1.889       .  S
Ni500      Ni705   2.387       .  S
C501        C526   1.473       .  S
C502        C514   1.477       .  S
C503        C520   1.471       .  S
C504        C508   1.475       .  S
C505       C1336   1.480   1_556  S
C505       C1141   1.487       .  S
C505        C808   1.482       .  S
C506        C518   1.480       .  S
C506        C530   1.475       .  S
C506        C550   1.476       .  S
C506        C564   1.477       .  S
C507        C508   1.355       .  D
C507        H509   1.088       .  S
C508        H510   1.085       .  S
C511        C512   1.212       .  T
C512       C1329   1.475   1_455  S
C513        C514   1.356       .  D
C513        H515   1.088       .  S
C514        H516   1.085       .  S
C517        C518   1.215       .  T
C519        C520   1.355       .  D
C519        H521   1.088       .  S
C520        H522   1.085       .  S
C523       C1123   1.480   1_465  S
C523        C524   1.215       .  T
C525        C526   1.354       .  D
C525        H527   1.088       .  S
C526        H528   1.085       .  S
C529        C530   1.212       .  T
C531        C532   1.357       .  D
C531        H533   1.085       .  S
C532        H534   1.088       .  S
C535        C536   1.359       .  D
C535        H537   1.085       .  S
C536        H538   1.088       .  S
C539        C540   1.358       .  D
C539        H541   1.088       .  S
C540        H542   1.085       .  S
C543        C544   1.214       .  T
C545        C546   1.357       .  D
C545        H547   1.088       .  S
C546        H548   1.085       .  S
C549        C550   1.213       .  T
C551        C552   1.355       .  D
C551        H553   1.085       .  S
C552        H554   1.088       .  S
C555        C556   1.356       .  D
C555        H557   1.085       .  S
C556        H558   1.088       .  S
C559        C560   1.356       .  D
C559        H561   1.088       .  S
C560        H562   1.085       .  S
C563        C564   1.214       .  T
C565        C566   1.357       .  D
C565        H567   1.088       .  S
C566        H568   1.085       .  S
C569        C570   1.357       .  D
C569        H571   1.085       .  S
C570        H572   1.088       .  S
C573        C574   1.357       .  D
C573        H575   1.085       .  S
C574        H576   1.088       .  S
C577        C578   1.357       .  D
C577        H579   1.085       .  S
C578        H580   1.088       .  S
C581        C582   1.356       .  D
C581        H583   1.088       .  S
C582        H584   1.085       .  S
C585        C586   1.356       .  D
C585        H587   1.085       .  S
C586        H588   1.088       .  S
C589        C590   1.357       .  D
C589        H591   1.088       .  S
C590        H592   1.085       .  S
C593        C594   1.356       .  D
C593        H595   1.088       .  S
C594        H596   1.085       .  S
C597        C598   1.356       .  D
C597        H599   1.088       .  S
C598        H600   1.085       .  S
C601        C602   1.215       .  T
C602        C711   1.480       .  S
C603        C604   1.357       .  D
C603        H605   1.088       .  S
C604        H606   1.085       .  S
C607        C608   1.356       .  D
C607        H609   1.085       .  S
C608        H610   1.088       .  S
C611        C612   1.356       .  D
C611        H613   1.088       .  S
C612        H614   1.085       .  S
C615        C616   1.359       .  D
C615        H617   1.088       .  S
C616        H618   1.085       .  S
O619       Ni627   1.965       .  S
O619        C629   1.294       .  A
O620      Ni1451   1.967   1_455  S
O620        C630   1.294       .  A
O621       Ni627   1.842       .  S
O621        C631   1.264       .  A
O622      Ni1451   1.853   1_455  S
O622        C632   1.262       .  A
O623       Ni628   1.976       .  S
O623        C632   1.297       .  A
O624      Ni1452   1.975       .  S
O624        C631   1.295       .  A
O625       Ni628   1.870       .  S
O625        C630   1.268       .  A
O626      Ni1452   1.865       .  S
O626        C629   1.268       .  A
Ni627      O1444   1.966       .  S
Ni627      O1446   1.852       .  S
Ni627     Ni1452   2.383       .  S
Ni628      O1448   1.976   1_455  S
Ni628      O1450   1.868   1_455  S
Ni628     Ni1451   2.383   1_455  S
C629        C810   1.483       .  S
C630        C813   1.487       .  S
C631        C822   1.487       .  S
C632        C818   1.472       .  S
C633        C799   1.513       .  S
C633        C803   1.522       .  S
C633        C821   1.517       .  S
C633        C807   1.488       .  S
O634        C644   1.285       .  A
O635       Ni642   1.934   1_565  S
O635        C645   1.284       .  A
O636        C646   1.276       .  A
O637       Ni642   1.889   1_565  S
O637        C647   1.276       .  A
O638       Ni643   1.934   1_565  S
O638        C647   1.285       .  A
O639        C646   1.285       .  A
O640       Ni643   1.877   1_565  S
O640        C645   1.274       .  A
O641        C644   1.274       .  A
Ni642      Ni643   2.390       .  S
C644        C796   1.470       .  S
C645        C788   1.465       .  S
C646        C804   1.476       .  S
C647        C791   1.474       .  S
O648       Ni656   1.939   1_565  S
O648        C658   1.286       .  A
O649        C659   1.286       .  A
O650       Ni656   1.885   1_565  S
O650        C660   1.274       .  A
O651        C661   1.275       .  A
O652       Ni657   1.944       .  S
O652        C661   1.287       .  A
O653        C660   1.288       .  A
O654       Ni657   1.877       .  S
O654        C659   1.273       .  A
O655        C658   1.274       .  A
C658        C772   1.474       .  S
C659        C783   1.471       .  S
C660        C775   1.481       .  S
C661        C779   1.479       .  S
C662        C765   1.523       .  S
C662        C784   1.515       .  S
C662        C809   1.527       .  S
C662        C769   1.490       .  S
O663       Ni671   1.936   1_556  S
O663        C673   1.286       .  A
O664        C674   1.285       .  A
O665       Ni671   1.880   1_556  S
O665        C675   1.274       .  A
O666        C676   1.276       .  A
O667        C676   1.286       .  A
O668       Ni672   1.942   1_556  S
O668        C675   1.286       .  A
O669        C674   1.274       .  A
O670       Ni672   1.878   1_556  S
O670        C673   1.273       .  A
Ni671      Ni672   2.388       .  S
C673        C800   1.469       .  S
C674        C757   1.472       .  S
C675        C761   1.476       .  S
C676        C766   1.480       .  S
C677        C751   1.531       .  S
C677        C762   1.520       .  S
C677        C787   1.508       .  S
C677        C755   1.492       .  S
C678        C745   1.526       .  S
C678        C758   1.515       .  S
C678        C776   1.524       .  S
C678        C749   1.490       .  S
O679      Ni1511   1.943       .  S
O679        C689   1.287       .  A
O680       Ni687   1.976       .  S
O680        C690   1.297       .  A
O681      Ni1511   1.881       .  S
O681        C691   1.273       .  A
O682       Ni687   1.864       .  S
O682        C692   1.267       .  A
O683       Ni688   1.965       .  S
O683        C692   1.294       .  A
O684      Ni1512   1.945       .  S
O684        C691   1.288       .  A
O685       Ni688   1.853       .  S
O685        C690   1.262       .  A
O686      Ni1512   1.884       .  S
O686        C689   1.274       .  A
Ni687      O1503   1.977       .  S
Ni687      O1505   1.865       .  S
Ni687      Ni688   2.383       .  S
Ni688      O1508   1.966       .  S
Ni688      O1510   1.845       .  S
C689        C737   1.477       .  S
C690        C752   1.472       .  S
C691        C741   1.477       .  S
C692        C746   1.483       .  S
C693        C731   1.522       .  S
C693        C795   1.514       .  S
C693        C814   1.530       .  S
C693        C735   1.491       .  S
C694        C725   1.521       .  S
C694        C742   1.523       .  S
C694        C792   1.520       .  S
C694        C730   1.485       .  S
C695        C719   1.516       .  S
C695        C738   1.523       .  S
C695        C771   1.521       .  S
C695        C723   1.483       .  S
C696        C713   1.508       .  S
C696        C780   1.523       .  S
C696        C817   1.531       .  S
C696        C717   1.491       .  S
O697       Ni705   1.942       .  S
O697        C707   1.286       .  A
O698        C708   1.285       .  A
O699       Ni705   1.886       .  S
O699        C709   1.275       .  A
O700        C710   1.275       .  A
O701       Ni706   1.931       .  S
O701        C710   1.283       .  A
O702        C709   1.286       .  A
O703       Ni706   1.884       .  S
O703        C708   1.275       .  A
O704        C707   1.276       .  A
C707        C732   1.480       .  S
C708        C720   1.473       .  S
C709        C726   1.475       .  S
C710        C714   1.464       .  S
C711       C1542   1.482       .  S
C711        C935   1.482       .  S
C712        C724   1.478       .  S
C712        C736   1.486       .  S
C712        C756   1.483       .  S
C712        C770   1.484       .  S
C713        C714   1.348       .  D
C713        H715   1.090       .  S
C714        H716   1.086       .  S
C717        C718   1.215       .  T
C718       C1535   1.481       .  S
C719        C720   1.353       .  D
C719        H721   1.088       .  S
C720        H722   1.085       .  S
C723        C724   1.214       .  T
C725        C726   1.356       .  D
C725        H727   1.088       .  S
C726        H728   1.085       .  S
C729        C917   1.480   1_466  S
C729        C730   1.215       .  T
C731        C732   1.355       .  D
C731        H733   1.088       .  S
C732        H734   1.085       .  S
C735        C736   1.218       .  T
C737        C738   1.358       .  D
C737        H739   1.085       .  S
C738        H740   1.088       .  S
C741        C742   1.359       .  D
C741        H743   1.085       .  S
C742        H744   1.088       .  S
C745        C746   1.368       .  D
C745        H747   1.088       .  S
C746        H748   1.085       .  S
C749        C750   1.217       .  T
C751        C752   1.329       .  D
C751        H753   1.088       .  S
C752        H754   1.089       .  S
C755        C756   1.217       .  T
C757        C758   1.355       .  D
C757        H759   1.085       .  S
C758        H760   1.088       .  S
C761        C762   1.355       .  D
C761        H763   1.084       .  S
C762        H764   1.088       .  S
C765        C766   1.356       .  D
C765        H767   1.088       .  S
C766        H768   1.085       .  S
C769        C770   1.218       .  T
C771        C772   1.357       .  D
C771        H773   1.088       .  S
C772        H774   1.085       .  S
C775        C776   1.358       .  D
C775        H777   1.085       .  S
C776        H778   1.088       .  S
C779        C780   1.356       .  D
C779        H781   1.084       .  S
C780        H782   1.088       .  S
C783        C784   1.356       .  D
C783        H785   1.085       .  S
C784        H786   1.088       .  S
C787        C788   1.352       .  D
C787        H789   1.089       .  S
C788        H790   1.086       .  S
C791        C792   1.354       .  D
C791        H793   1.085       .  S
C792        H794   1.088       .  S
C795        C796   1.354       .  D
C795        H797   1.088       .  S
C796        H798   1.085       .  S
C799        C800   1.356       .  D
C799        H801   1.088       .  S
C800        H802   1.085       .  S
C803        C804   1.354       .  D
C803        H805   1.088       .  S
C804        H806   1.085       .  S
C807        C808   1.216       .  T
C809        C810   1.368       .  D
C809        H811   1.088       .  S
C810        H812   1.085       .  S
C813        C814   1.369       .  D
C813        H815   1.085       .  S
C814        H816   1.087       .  S
C817        C818   1.329       .  D
C817        H819   1.088       .  S
C818        H820   1.089       .  S
C821        C822   1.370       .  D
C821        H823   1.088       .  S
C822        H824   1.085       .  S
O825       Ni833   1.964       .  S
O825        C835   1.293       .  A
O826        C836   1.287       .  A
O827       Ni833   1.845       .  S
O827        C837   1.264       .  A
O828        C838   1.274       .  A
O829       Ni834   1.945       .  S
O829        C838   1.288       .  A
O830        C837   1.295       .  A
O831       Ni834   1.881       .  S
O831        C836   1.273       .  A
O832        C835   1.269       .  A
C835       C1016   1.484       .  S
C836       C1019   1.476       .  S
C837       C1028   1.485       .  S
C838       C1024   1.479       .  S
C839       C1005   1.511       .  S
C839       C1009   1.523       .  S
C839       C1027   1.517       .  S
C839       C1013   1.485       .  S
O840      Ni1260   1.939       .  S
O840        C850   1.286       .  A
O841       Ni848   1.939       .  S
O841        C851   1.286       .  A
O842      Ni1260   1.886       .  S
O842        C852   1.275       .  A
O843       Ni848   1.884       .  S
O843        C853   1.274       .  A
O844       Ni849   1.940       .  S
O844        C853   1.286       .  A
O845      Ni1261   1.941       .  S
O845        C852   1.286       .  A
O846       Ni849   1.884       .  S
O846        C851   1.274       .  A
O847      Ni1261   1.882       .  S
O847        C850   1.274       .  A
Ni848      O1252   1.939       .  S
Ni848      O1254   1.883       .  S
Ni848      Ni849   2.388       .  S
Ni849      O1257   1.940       .  S
Ni849      O1259   1.883       .  S
C850       C1002   1.475       .  S
C851        C994   1.474       .  S
C852       C1010   1.478       .  S
C853        C997   1.476       .  S
O854       Ni862   1.941       .  S
O854        C864   1.287       .  A
O855      Ni1274   1.938   1_545  S
O855        C865   1.286       .  A
O856       Ni862   1.878       .  S
O856        C866   1.273       .  A
O857      Ni1274   1.879   1_545  S
O857        C867   1.274       .  A
O858       Ni863   1.937   1_545  S
O858        C867   1.285       .  A
O859      Ni1275   1.939       .  S
O859        C866   1.286       .  A
O860       Ni863   1.883   1_545  S
O860        C865   1.274       .  A
O861      Ni1275   1.887       .  S
O861        C864   1.275       .  A
Ni862      O1267   1.940       .  S
Ni862      O1269   1.878       .  S
Ni862     Ni1275   2.388       .  S
Ni863      O1271   1.937       .  S
Ni863      O1273   1.885       .  S
Ni863     Ni1274   2.388       .  S
C864        C978   1.477       .  S
C865        C989   1.474       .  S
C866        C981   1.473       .  S
C867        C985   1.473       .  S
C868        C971   1.525       .  S
C868        C990   1.517       .  S
C868       C1015   1.528       .  S
C868        C975   1.489       .  S
O869       Ni877   1.933       .  S
O869        C879   1.284       .  A
O870      Ni1083   1.936       .  S
O870        C880   1.285       .  A
O871       Ni877   1.889       .  S
O871        C881   1.276       .  A
O872      Ni1083   1.893       .  S
O872        C882   1.276       .  A
O873      Ni1084   1.940       .  S
O873        C882   1.286       .  A
O874       Ni878   1.937       .  S
O874        C881   1.286       .  A
O875      Ni1084   1.879       .  S
O875        C880   1.274       .  A
O876       Ni878   1.879       .  S
O876        C879   1.274       .  A
Ni877      O1076   1.935       .  S
Ni877      O1078   1.891       .  S
Ni877      Ni878   2.388       .  S
Ni878      O1079   1.939       .  S
Ni878      O1081   1.883       .  S
C879       C1006   1.469       .  S
C880        C963   1.471       .  S
C881        C967   1.476       .  S
C882        C972   1.481       .  S
C883        C957   1.522       .  S
C883        C968   1.521       .  S
C883        C993   1.520       .  S
C883        C961   1.484       .  S
C884        C951   1.519       .  S
C884        C964   1.516       .  S
C884        C982   1.516       .  S
C884        C955   1.482       .  S
O885        C895   1.287       .  A
O886       Ni893   1.943   1_655  S
O886        C896   1.287       .  A
O887        C897   1.274       .  A
O888       Ni893   1.878   1_655  S
O888        C898   1.273       .  A
O889       Ni894   1.944   1_655  S
O889        C898   1.287       .  A
O890        C897   1.288       .  A
O891       Ni894   1.883   1_655  S
O891        C896   1.274       .  A
O892        C895   1.274       .  A
Ni893      Ni894   2.387       .  S
C895        C943   1.478       .  S
C896        C958   1.477       .  S
C897        C947   1.479       .  S
C898        C952   1.475       .  S
C899        C937   1.521       .  S
C899       C1001   1.519       .  S
C899       C1020   1.521       .  S
C899        C941   1.485       .  S
C900        C931   1.521       .  S
C900        C948   1.524       .  S
C900        C998   1.521       .  S
C900        C936   1.487       .  S
C901        C925   1.521       .  S
C901        C944   1.524       .  S
C901        C977   1.523       .  S
C901        C929   1.487       .  S
C902        C919   1.521       .  S
C902        C986   1.516       .  S
C902       C1023   1.525       .  S
C902        C923   1.486       .  S
O903       Ni911   1.942       .  S
O903        C913   1.287       .  A
O904      Ni1117   1.942       .  S
O904        C914   1.287       .  A
O905       Ni911   1.884       .  S
O905        C915   1.274       .  A
O906      Ni1117   1.883       .  S
O906        C916   1.274       .  A
O907       Ni912   1.941       .  S
O907        C916   1.287       .  A
O908      Ni1118   1.940       .  S
O908        C915   1.286       .  A
O909       Ni912   1.884       .  S
O909        C914   1.274       .  A
O910      Ni1118   1.884       .  S
O910        C913   1.274       .  A
Ni911      O1110   1.943       .  S
Ni911      O1112   1.884       .  S
Ni911     Ni1118   2.387       .  S
Ni912      O1114   1.940   1_554  S
Ni912      O1116   1.884   1_554  S
Ni912     Ni1117   2.387       .  S
C913        C938   1.477       .  S
C914        C926   1.477       .  S
C915        C932   1.476       .  S
C916        C920   1.476       .  S
C917       C1368   1.477   1_545  S
C917       C1220   1.478   1_554  S
C918        C930   1.482       .  S
C918        C942   1.479       .  S
C918        C962   1.479       .  S
C918        C976   1.483       .  S
C919        C920   1.358       .  D
C919        H921   1.088       .  S
C920        H922   1.085       .  S
C923        C924   1.215       .  T
C925        C926   1.357       .  D
C925        H927   1.088       .  S
C926        H928   1.085       .  S
C929        C930   1.216       .  T
C931        C932   1.357       .  D
C931        H933   1.088       .  S
C932        H934   1.085       .  S
C935        C936   1.216       .  T
C937        C938   1.357       .  D
C937        H939   1.088       .  S
C938        H940   1.085       .  S
C941        C942   1.215       .  T
C943        C944   1.358       .  D
C943        H945   1.085       .  S
C944        H946   1.088       .  S
C947        C948   1.359       .  D
C947        H949   1.085       .  S
C948        H950   1.088       .  S
C951        C952   1.358       .  D
C951        H953   1.088       .  S
C952        H954   1.085       .  S
C955        C956   1.213       .  T
C956       C1329   1.476       .  S
C957        C958   1.358       .  D
C957        H959   1.088       .  S
C958        H960   1.085       .  S
C961        C962   1.214       .  T
C963        C964   1.355       .  D
C963        H965   1.085       .  S
C964        H966   1.088       .  S
C967        C968   1.355       .  D
C967        H969   1.085       .  S
C968        H970   1.088       .  S
C971        C972   1.356       .  D
C971        H973   1.088       .  S
C972        H974   1.085       .  S
C975        C976   1.217       .  T
C977        C978   1.357       .  D
C977        H979   1.088       .  S
C978        H980   1.085       .  S
C981        C982   1.356       .  D
C981        H983   1.085       .  S
C982        H984   1.088       .  S
C985        C986   1.355       .  D
C985        H987   1.085       .  S
C986        H988   1.088       .  S
C989        C990   1.355       .  D
C989        H991   1.085       .  S
C990        H992   1.088       .  S
C993        C994   1.357       .  D
C993        H995   1.088       .  S
C994        H996   1.085       .  S
C997        C998   1.357       .  D
C997        H999   1.085       .  S
C998       H1000   1.088       .  S
C1001      C1002   1.356       .  D
C1001      H1003   1.088       .  S
C1002      H1004   1.085       .  S
C1005      C1006   1.353       .  D
C1005      H1007   1.088       .  S
C1006      H1008   1.085       .  S
C1009      C1010   1.356       .  D
C1009      H1011   1.088       .  S
C1010      H1012   1.085       .  S
C1013      C1014   1.214       .  T
C1014      C1123   1.478       .  S
C1015      C1016   1.367       .  D
C1015      H1017   1.088       .  S
C1016      H1018   1.084       .  S
C1019      C1020   1.358       .  D
C1019      H1021   1.085       .  S
C1020      H1022   1.088       .  S
C1023      C1024   1.359       .  D
C1023      H1025   1.088       .  S
C1024      H1026   1.085       .  S
C1027      C1028   1.369       .  D
C1027      H1029   1.088       .  S
C1028      H1030   1.085       .  S
O1031     Ni1039   1.967       .  S
O1031      C1041   1.294       .  A
O1032      C1042   1.287       .  A
O1033     Ni1039   1.843       .  S
O1033      C1043   1.264       .  A
O1034      C1044   1.273       .  A
O1035     Ni1040   1.941       .  S
O1035      C1044   1.287       .  A
O1036      C1043   1.295       .  A
O1037     Ni1040   1.880       .  S
O1037      C1042   1.273       .  A
O1038      C1041   1.268       .  A
C1041      C1222   1.486       .  S
C1042      C1225   1.474       .  S
C1043      C1234   1.487       .  S
C1044      C1230   1.475       .  S
C1045      C1211   1.510       .  S
C1045      C1215   1.524       .  S
C1045      C1233   1.518       .  S
C1045      C1219   1.485       .  S
O1046     Ni1466   1.932       .  S
O1046      C1056   1.284       .  A
O1047     Ni1054   1.936       .  S
O1047      C1057   1.285       .  A
O1048     Ni1466   1.893       .  S
O1048      C1058   1.276       .  A
O1049     Ni1054   1.893       .  S
O1049      C1059   1.276       .  A
O1050     Ni1055   1.939       .  S
O1050      C1059   1.286       .  A
O1051     Ni1467   1.936       .  S
O1051      C1058   1.285       .  A
O1052     Ni1055   1.886       .  S
O1052      C1057   1.275       .  A
O1053     Ni1467   1.889       .  S
O1053      C1056   1.276       .  A
Ni1054     O1458   1.938       .  S
Ni1054     O1460   1.892       .  S
Ni1054    Ni1055   2.388       .  S
Ni1055     O1463   1.938       .  S
Ni1055     O1465   1.886       .  S
C1056      C1208   1.473       .  S
C1057      C1200   1.473       .  S
C1058      C1216   1.477       .  S
C1059      C1203   1.480       .  S
O1060     Ni1068   1.938       .  S
O1060      C1070   1.286       .  A
O1061     Ni1480   1.938       .  S
O1061      C1071   1.286       .  A
O1062     Ni1068   1.882       .  S
O1062      C1072   1.274       .  A
O1063     Ni1480   1.884       .  S
O1063      C1073   1.274       .  A
O1064     Ni1069   1.938       .  S
O1064      C1073   1.286       .  A
O1065     Ni1481   1.940       .  S
O1065      C1072   1.286       .  A
O1066     Ni1069   1.876       .  S
O1066      C1071   1.273       .  A
O1067     Ni1481   1.874       .  S
O1067      C1070   1.273       .  A
Ni1068     O1473   1.939       .  S
Ni1068     O1475   1.882       .  S
Ni1068    Ni1481   2.388       .  S
Ni1069     O1477   1.939   1_545  S
Ni1069     O1479   1.876   1_545  S
Ni1069    Ni1480   2.389       .  S
C1070      C1184   1.470       .  S
C1071      C1195   1.471       .  S
C1072      C1187   1.475       .  S
C1073      C1191   1.474       .  S
C1074      C1177   1.522       .  S
C1074      C1196   1.514       .  S
C1074      C1221   1.530       .  S
C1074      C1181   1.488       .  S
O1075     Ni1083   1.934   1_556  S
O1075      C1085   1.285       .  A
O1076      C1086   1.285       .  A
O1077     Ni1083   1.890   1_556  S
O1077      C1087   1.276       .  A
O1078      C1088   1.276       .  A
O1079      C1088   1.286       .  A
O1080     Ni1084   1.939   1_556  S
O1080      C1087   1.286       .  A
O1081      C1086   1.274       .  A
O1082     Ni1084   1.876   1_556  S
O1082      C1085   1.273       .  A
Ni1083    Ni1084   2.388       .  S
C1085      C1212   1.468       .  S
C1086      C1169   1.472       .  S
C1087      C1173   1.477       .  S
C1088      C1178   1.479       .  S
C1089      C1163   1.521       .  S
C1089      C1174   1.522       .  S
C1089      C1199   1.519       .  S
C1089      C1167   1.482       .  S
C1090      C1157   1.518       .  S
C1090      C1170   1.517       .  S
C1090      C1188   1.519       .  S
C1090      C1161   1.483       .  S
O1091      C1101   1.295       .  A
O1092     Ni1099   1.942   1_655  S
O1092      C1102   1.287       .  A
O1093      C1103   1.268       .  A
O1094     Ni1099   1.877   1_655  S
O1094      C1104   1.272       .  A
O1095     Ni1100   1.943   1_655  S
O1095      C1104   1.287       .  A
O1096      C1103   1.294       .  A
O1097     Ni1100   1.882   1_655  S
O1097      C1102   1.274       .  A
O1098      C1101   1.264       .  A
Ni1099    Ni1100   2.388       .  S
C1101      C1149   1.486       .  S
C1102      C1164   1.476       .  S
C1103      C1153   1.487       .  S
C1104      C1158   1.474       .  S
C1105      C1143   1.522       .  S
C1105      C1207   1.519       .  S
C1105      C1226   1.519       .  S
C1105      C1147   1.484       .  S
C1106      C1137   1.518       .  S
C1106      C1154   1.529       .  S
C1106      C1204   1.524       .  S
C1106      C1142   1.493       .  S
C1107      C1131   1.522       .  S
C1107      C1150   1.519       .  S
C1107      C1183   1.512       .  S
C1107      C1135   1.490       .  S
C1108      C1125   1.520       .  S
C1108      C1192   1.520       .  S
C1108      C1229   1.518       .  S
C1108      C1129   1.482       .  S
O1109     Ni1117   1.942   1_556  S
O1109      C1119   1.287       .  A
O1110      C1120   1.287       .  A
O1111     Ni1117   1.881   1_556  S
O1111      C1121   1.274       .  A
O1112      C1122   1.274       .  A
O1113     Ni1118   1.940       .  S
O1113      C1122   1.286       .  A
O1114      C1121   1.286       .  A
O1115     Ni1118   1.884       .  S
O1115      C1120   1.274       .  A
O1116      C1119   1.274       .  A
C1119      C1144   1.477       .  S
C1120      C1132   1.479       .  S
C1121      C1138   1.474       .  S
C1122      C1126   1.476       .  S
C1123      C1574   1.479   1_545  S
C1124      C1136   1.484       .  S
C1124      C1148   1.479       .  S
C1124      C1168   1.476       .  S
C1124      C1182   1.483       .  S
C1125      C1126   1.357       .  D
C1125      H1127   1.088       .  S
C1126      H1128   1.085       .  S
C1129      C1130   1.213       .  T
C1131      C1132   1.357       .  D
C1131      H1133   1.088       .  S
C1132      H1134   1.085       .  S
C1135      C1136   1.217       .  T
C1137      C1138   1.357       .  D
C1137      H1139   1.088       .  S
C1138      H1140   1.085       .  S
C1141      C1142   1.219       .  T
C1143      C1144   1.357       .  D
C1143      H1145   1.088       .  S
C1144      H1146   1.085       .  S
C1147      C1148   1.214       .  T
C1149      C1150   1.370       .  D
C1149      H1151   1.085       .  S
C1150      H1152   1.088       .  S
C1153      C1154   1.369       .  D
C1153      H1155   1.085       .  S
C1154      H1156   1.087       .  S
C1157      C1158   1.358       .  D
C1157      H1159   1.088       .  S
C1158      H1160   1.085       .  S
C1161      C1162   1.213       .  T
C1162      C1535   1.477   1_655  S
C1163      C1164   1.358       .  D
C1163      H1165   1.088       .  S
C1164      H1166   1.085       .  S
C1167      C1168   1.213       .  T
C1169      C1170   1.355       .  D
C1169      H1171   1.085       .  S
C1170      H1172   1.088       .  S
C1173      C1174   1.355       .  D
C1173      H1175   1.085       .  S
C1174      H1176   1.088       .  S
C1177      C1178   1.354       .  D
C1177      H1179   1.088       .  S
C1178      H1180   1.085       .  S
C1181      C1182   1.217       .  T
C1183      C1184   1.356       .  D
C1183      H1185   1.088       .  S
C1184      H1186   1.085       .  S
C1187      C1188   1.356       .  D
C1187      H1189   1.085       .  S
C1188      H1190   1.088       .  S
C1191      C1192   1.356       .  D
C1191      H1193   1.085       .  S
C1192      H1194   1.088       .  S
C1195      C1196   1.356       .  D
C1195      H1197   1.085       .  S
C1196      H1198   1.088       .  S
C1199      C1200   1.355       .  D
C1199      H1201   1.088       .  S
C1200      H1202   1.085       .  S
C1203      C1204   1.355       .  D
C1203      H1205   1.085       .  S
C1204      H1206   1.088       .  S
C1207      C1208   1.354       .  D
C1207      H1209   1.088       .  S
C1208      H1210   1.085       .  S
C1211      C1212   1.354       .  D
C1211      H1213   1.088       .  S
C1212      H1214   1.085       .  S
C1215      C1216   1.354       .  D
C1215      H1217   1.088       .  S
C1216      H1218   1.085       .  S
C1219      C1220   1.214       .  T
C1221      C1222   1.369       .  D
C1221      H1223   1.088       .  S
C1222      H1224   1.085       .  S
C1225      C1226   1.357       .  D
C1225      H1227   1.085       .  S
C1226      H1228   1.088       .  S
C1229      C1230   1.357       .  D
C1229      H1231   1.088       .  S
C1230      H1232   1.085       .  S
C1233      C1234   1.370       .  D
C1233      H1235   1.088       .  S
C1234      H1236   1.085       .  S
O1237     Ni1245   1.937   1_655  S
O1237      C1247   1.286       .  A
O1238      C1248   1.287       .  A
O1239     Ni1245   1.884   1_655  S
O1239      C1249   1.274       .  A
O1240      C1250   1.274       .  A
O1241     Ni1246   1.945       .  S
O1241      C1250   1.288       .  A
O1242      C1249   1.286       .  A
O1243     Ni1246   1.883       .  S
O1243      C1248   1.274       .  A
O1244      C1247   1.275       .  A
C1247      C1428   1.474       .  S
C1248      C1431   1.476       .  S
C1249      C1440   1.475       .  S
C1250      C1436   1.480       .  S
C1251      C1417   1.519       .  S
C1251      C1421   1.520       .  S
C1251      C1439   1.520       .  S
C1251      C1425   1.481       .  S
O1252      C1262   1.286       .  A
O1253     Ni1260   1.940   1_565  S
O1253      C1263   1.286       .  A
O1254      C1264   1.274       .  A
O1255     Ni1260   1.886   1_565  S
O1255      C1265   1.275       .  A
O1256     Ni1261   1.940   1_565  S
O1256      C1265   1.286       .  A
O1257      C1264   1.286       .  A
O1258     Ni1261   1.884   1_565  S
O1258      C1263   1.274       .  A
O1259      C1262   1.274       .  A
Ni1260    Ni1261   2.388       .  S
C1262      C1414   1.474       .  S
C1263      C1406   1.475       .  S
C1264      C1422   1.475       .  S
C1265      C1409   1.476       .  S
O1266     Ni1274   1.940       .  S
O1266      C1276   1.286       .  A
O1267      C1277   1.286       .  A
O1268     Ni1274   1.881       .  S
O1268      C1278   1.274       .  A
O1269      C1279   1.273       .  A
O1270     Ni1275   1.939       .  S
O1270      C1279   1.286       .  A
O1271      C1278   1.285       .  A
O1272     Ni1275   1.886       .  S
O1272      C1277   1.275       .  A
O1273      C1276   1.275       .  A
C1276      C1390   1.477       .  S
C1277      C1401   1.476       .  S
C1278      C1393   1.472       .  S
C1279      C1397   1.473       .  S
C1280      C1383   1.519       .  S
C1280      C1402   1.521       .  S
C1280      C1427   1.520       .  S
C1280      C1387   1.481       .  S
O1281     Ni1289   1.939       .  S
O1281      C1291   1.286       .  A
O1282     Ni1495   1.936       .  S
O1282      C1292   1.285       .  A
O1283     Ni1289   1.889       .  S
O1283      C1293   1.275       .  A
O1284     Ni1495   1.885       .  S
O1284      C1294   1.275       .  A
O1285     Ni1496   1.938       .  S
O1285      C1294   1.286       .  A
O1286     Ni1290   1.941       .  S
O1286      C1293   1.287       .  A
O1287     Ni1496   1.880       .  S
O1287      C1292   1.274       .  A
O1288     Ni1290   1.884       .  S
O1288      C1291   1.274       .  A
Ni1289     O1488   1.940       .  S
Ni1289     O1490   1.890       .  S
Ni1289    Ni1290   2.387       .  S
Ni1290     O1491   1.943       .  S
Ni1290     O1493   1.885       .  S
C1291      C1418   1.475       .  S
C1292      C1375   1.471       .  S
C1293      C1379   1.477       .  S
C1294      C1384   1.474       .  S
C1295      C1369   1.522       .  S
C1295      C1380   1.523       .  S
C1295      C1405   1.521       .  S
C1295      C1373   1.485       .  S
C1296      C1363   1.519       .  S
C1296      C1376   1.517       .  S
C1296      C1394   1.517       .  S
C1296      C1367   1.482       .  S
O1297      C1307   1.286       .  A
O1298     Ni1305   1.941       .  S
O1298      C1308   1.287       .  A
O1299      C1309   1.273       .  A
O1300     Ni1305   1.877       .  S
O1300      C1310   1.273       .  A
O1301     Ni1306   1.945       .  S
O1301      C1310   1.288       .  A
O1302      C1309   1.287       .  A
O1303     Ni1306   1.884       .  S
O1303      C1308   1.274       .  A
O1304      C1307   1.273       .  A
Ni1305    Ni1306   2.387       .  S
C1307      C1355   1.473       .  S
C1308      C1370   1.476       .  S
C1309      C1359   1.474       .  S
C1310      C1364   1.476       .  S
C1311      C1349   1.520       .  S
C1311      C1413   1.519       .  S
C1311      C1432   1.522       .  S
C1311      C1353   1.480       .  S
C1312      C1343   1.516       .  S
C1312      C1360   1.519       .  S
C1312      C1410   1.521       .  S
C1312      C1348   1.481       .  S
C1313      C1337   1.522       .  S
C1313      C1356   1.518       .  S
C1313      C1389   1.521       .  S
C1313      C1341   1.482       .  S
C1314      C1331   1.520       .  S
C1314      C1398   1.517       .  S
C1314      C1435   1.524       .  S
C1314      C1335   1.486       .  S
O1315     Ni1323   1.933       .  S
O1315      C1325   1.284       .  A
O1316     Ni1529   1.951       .  S
O1316      C1326   1.289       .  A
O1317     Ni1323   1.883       .  S
O1317      C1327   1.275       .  A
O1318     Ni1529   1.872       .  S
O1318      C1328   1.271       .  A
O1319     Ni1324   1.952   1_554  S
O1319      C1328   1.289       .  A
O1320     Ni1530   1.933       .  S
O1320      C1327   1.284       .  A
O1321     Ni1324   1.876   1_554  S
O1321      C1326   1.272       .  A
O1322     Ni1530   1.891       .  S
O1322      C1325   1.276       .  A
Ni1323     O1522   1.937       .  S
Ni1323     O1524   1.881       .  S
Ni1323    Ni1530   2.389       .  S
Ni1324     O1526   1.953       .  S
Ni1324     O1528   1.888       .  S
Ni1324    Ni1529   2.386   1_556  S
C1325      C1350   1.474       .  S
C1326      C1338   1.479       .  S
C1327      C1344   1.471       .  S
C1328      C1332   1.480       .  S
C1329      C1632   1.480   1_554  S
C1330      C1342   1.477       .  S
C1330      C1354   1.474       .  S
C1330      C1374   1.479       .  S
C1330      C1388   1.475       .  S
C1331      C1332   1.361       .  D
C1331      H1333   1.088       .  S
C1332      H1334   1.085       .  S
C1335      C1336   1.215       .  T
C1337      C1338   1.361       .  D
C1337      H1339   1.088       .  S
C1338      H1340   1.085       .  S
C1341      C1342   1.213       .  T
C1343      C1344   1.354       .  D
C1343      H1345   1.088       .  S
C1344      H1346   1.085       .  S
C1347      C1348   1.213       .  T
C1349      C1350   1.353       .  D
C1349      H1351   1.088       .  S
C1350      H1352   1.085       .  S
C1353      C1354   1.212       .  T
C1355      C1356   1.356       .  D
C1355      H1357   1.085       .  S
C1356      H1358   1.088       .  S
C1359      C1360   1.358       .  D
C1359      H1361   1.085       .  S
C1360      H1362   1.088       .  S
C1363      C1364   1.358       .  D
C1363      H1365   1.088       .  S
C1364      H1366   1.085       .  S
C1367      C1368   1.213       .  T
C1369      C1370   1.357       .  D
C1369      H1371   1.088       .  S
C1370      H1372   1.085       .  S
C1373      C1374   1.215       .  T
C1375      C1376   1.356       .  D
C1375      H1377   1.085       .  S
C1376      H1378   1.088       .  S
C1379      C1380   1.357       .  D
C1379      H1381   1.085       .  S
C1380      H1382   1.088       .  S
C1383      C1384   1.356       .  D
C1383      H1385   1.088       .  S
C1384      H1386   1.085       .  S
C1387      C1388   1.213       .  T
C1389      C1390   1.356       .  D
C1389      H1391   1.088       .  S
C1390      H1392   1.085       .  S
C1393      C1394   1.355       .  D
C1393      H1395   1.085       .  S
C1394      H1396   1.088       .  S
C1397      C1398   1.356       .  D
C1397      H1399   1.085       .  S
C1398      H1400   1.088       .  S
C1401      C1402   1.356       .  D
C1401      H1403   1.085       .  S
C1402      H1404   1.088       .  S
C1405      C1406   1.357       .  D
C1405      H1407   1.088       .  S
C1406      H1408   1.085       .  S
C1409      C1410   1.356       .  D
C1409      H1411   1.085       .  S
C1410      H1412   1.088       .  S
C1413      C1414   1.356       .  D
C1413      H1415   1.088       .  S
C1414      H1416   1.085       .  S
C1417      C1418   1.356       .  D
C1417      H1419   1.088       .  S
C1418      H1420   1.085       .  S
C1421      C1422   1.356       .  D
C1421      H1423   1.088       .  S
C1422      H1424   1.085       .  S
C1425      C1426   1.212       .  T
C1426      C1535   1.475   1_655  S
C1427      C1428   1.355       .  D
C1427      H1429   1.088       .  S
C1428      H1430   1.085       .  S
C1431      C1432   1.358       .  D
C1431      H1433   1.085       .  S
C1432      H1434   1.088       .  S
C1435      C1436   1.358       .  D
C1435      H1437   1.088       .  S
C1436      H1438   1.085       .  S
C1439      C1440   1.356       .  D
C1439      H1441   1.088       .  S
C1440      H1442   1.085       .  S
O1443     Ni1451   1.967       .  S
O1443      C1453   1.294       .  A
O1444      C1454   1.294       .  A
O1445     Ni1451   1.844       .  S
O1445      C1455   1.264       .  A
O1446      C1456   1.262       .  A
O1447     Ni1452   1.975       .  S
O1447      C1456   1.296       .  A
O1448      C1455   1.296       .  A
O1449     Ni1452   1.867       .  S
O1449      C1454   1.267       .  A
O1450      C1453   1.268       .  A
C1453      C1634   1.486       .  S
C1454      C1637   1.485       .  S
C1455      C1646   1.487       .  S
C1456      C1642   1.470       .  S
C1457      C1623   1.510       .  S
C1457      C1627   1.524       .  S
C1457      C1645   1.519       .  S
C1457      C1631   1.486       .  S
O1458      C1468   1.285       .  A
O1459     Ni1466   1.935   1_565  S
O1459      C1469   1.285       .  A
O1460      C1470   1.276       .  A
O1461     Ni1466   1.893   1_565  S
O1461      C1471   1.277       .  A
O1462     Ni1467   1.936   1_565  S
O1462      C1471   1.285       .  A
O1463      C1470   1.286       .  A
O1464     Ni1467   1.885   1_565  S
O1464      C1469   1.275       .  A
O1465      C1468   1.275       .  A
Ni1466    Ni1467   2.389       .  S
C1468      C1620   1.477       .  S
C1469      C1612   1.472       .  S
C1470      C1628   1.478       .  S
C1471      C1615   1.473       .  S
O1472     Ni1480   1.937   1_565  S
O1472      C1482   1.286       .  A
O1473      C1483   1.286       .  A
O1474     Ni1480   1.883   1_565  S
O1474      C1484   1.274       .  A
O1475      C1485   1.274       .  A
O1476     Ni1481   1.941       .  S
O1476      C1485   1.286       .  A
O1477      C1484   1.286       .  A
O1478     Ni1481   1.871       .  S
O1478      C1483   1.272       .  A
O1479      C1482   1.273       .  A
C1482      C1596   1.469       .  S
C1483      C1607   1.470       .  S
C1484      C1599   1.475       .  S
C1485      C1603   1.476       .  S
C1486      C1589   1.524       .  S
C1486      C1608   1.512       .  S
C1486      C1633   1.530       .  S
C1486      C1593   1.492       .  S
O1487     Ni1495   1.934   1_556  S
O1487      C1497   1.285       .  A
O1488      C1498   1.286       .  A
O1489     Ni1495   1.883   1_556  S
O1489      C1499   1.275       .  A
O1490      C1500   1.276       .  A
O1491      C1500   1.287       .  A
O1492     Ni1496   1.937   1_556  S
O1492      C1499   1.285       .  A
O1493      C1498   1.274       .  A
O1494     Ni1496   1.877   1_556  S
O1494      C1497   1.274       .  A
Ni1495    Ni1496   2.389       .  S
C1497      C1624   1.468       .  S
C1498      C1581   1.475       .  S
C1499      C1585   1.474       .  S
C1500      C1590   1.481       .  S
C1501      C1575   1.523       .  S
C1501      C1586   1.518       .  S
C1501      C1611   1.519       .  S
C1501      C1579   1.483       .  S
C1502      C1569   1.521       .  S
C1502      C1582   1.521       .  S
C1502      C1600   1.519       .  S
C1502      C1573   1.485       .  S
O1503      C1513   1.296       .  A
O1504     Ni1511   1.943   1_655  S
O1504      C1514   1.287       .  A
O1505      C1515   1.267       .  A
O1506     Ni1511   1.880   1_655  S
O1506      C1516   1.273       .  A
O1507     Ni1512   1.945   1_655  S
O1507      C1516   1.288       .  A
O1508      C1515   1.294       .  A
O1509     Ni1512   1.883   1_655  S
O1509      C1514   1.273       .  A
O1510      C1513   1.264       .  A
Ni1511    Ni1512   2.387       .  S
C1513      C1561   1.488       .  S
C1514      C1576   1.476       .  S
C1515      C1565   1.484       .  S
C1516      C1570   1.477       .  S
C1517      C1555   1.531       .  S
C1517      C1619   1.518       .  S
C1517      C1638   1.528       .  S
C1517      C1559   1.496       .  S
C1518      C1549   1.528       .  S
C1518      C1566   1.528       .  S
C1518      C1616   1.516       .  S
C1518      C1554   1.508       .  S
C1519      C1543   1.520       .  S
C1519      C1562   1.520       .  S
C1519      C1595   1.513       .  S
C1519      C1547   1.489       .  S
C1520      C1537   1.508       .  S
C1520      C1604   1.521       .  S
C1520      C1641   1.530       .  S
C1520      C1541   1.492       .  S
O1521     Ni1529   1.956   1_556  S
O1521      C1531   1.291       .  A
O1522      C1532   1.285       .  A
O1523     Ni1529   1.878   1_556  S
O1523      C1533   1.269       .  A
O1524      C1534   1.274       .  A
O1525     Ni1530   1.931       .  S
O1525      C1534   1.284       .  A
O1526      C1533   1.290       .  A
O1527     Ni1530   1.888       .  S
O1527      C1532   1.276       .  A
O1528      C1531   1.273       .  A
C1531      C1556   1.489       .  S
C1532      C1544   1.476       .  S
C1533      C1550   1.467       .  S
C1534      C1538   1.463       .  S
C1536      C1548   1.483       .  S
C1536      C1560   1.491       .  S
C1536      C1580   1.478       .  S
C1536      C1594   1.487       .  S
C1537      C1538   1.350       .  D
C1537      H1539   1.089       .  S
C1538      H1540   1.086       .  S
C1541      C1542   1.216       .  T
C1543      C1544   1.354       .  D
C1543      H1545   1.088       .  S
C1544      H1546   1.085       .  S
C1547      C1548   1.217       .  T
C1549      C1550   1.333       .  D
C1549      H1551   1.089       .  S
C1550      H1552   1.085       .  S
C1553      C1554   1.225       .  T
C1555      C1556   1.362       .  D
C1555      H1557   1.088       .  S
C1556      H1558   1.085       .  S
C1559      C1560   1.221       .  T
C1561      C1562   1.370       .  D
C1561      H1563   1.085       .  S
C1562      H1564   1.088       .  S
C1565      C1566   1.369       .  D
C1565      H1567   1.084       .  S
C1566      H1568   1.087       .  S
C1569      C1570   1.359       .  D
C1569      H1571   1.088       .  S
C1570      H1572   1.085       .  S
C1573      C1574   1.215       .  T
C1575      C1576   1.359       .  D
C1575      H1577   1.088       .  S
C1576      H1578   1.085       .  S
C1579      C1580   1.214       .  T
C1581      C1582   1.357       .  D
C1581      H1583   1.085       .  S
C1582      H1584   1.088       .  S
C1585      C1586   1.355       .  D
C1585      H1587   1.085       .  S
C1586      H1588   1.088       .  S
C1589      C1590   1.356       .  D
C1589      H1591   1.088       .  S
C1590      H1592   1.085       .  S
C1593      C1594   1.219       .  T
C1595      C1596   1.356       .  D
C1595      H1597   1.088       .  S
C1596      H1598   1.085       .  S
C1599      C1600   1.356       .  D
C1599      H1601   1.085       .  S
C1600      H1602   1.088       .  S
C1603      C1604   1.355       .  D
C1603      H1605   1.084       .  S
C1604      H1606   1.088       .  S
C1607      C1608   1.356       .  D
C1607      H1609   1.085       .  S
C1608      H1610   1.088       .  S
C1611      C1612   1.355       .  D
C1611      H1613   1.088       .  S
C1612      H1614   1.085       .  S
C1615      C1616   1.350       .  D
C1615      H1617   1.086       .  S
C1616      H1618   1.090       .  S
C1619      C1620   1.354       .  D
C1619      H1621   1.088       .  S
C1620      H1622   1.085       .  S
C1623      C1624   1.354       .  D
C1623      H1625   1.088       .  S
C1624      H1626   1.085       .  S
C1627      C1628   1.355       .  D
C1627      H1629   1.088       .  S
C1628      H1630   1.085       .  S
C1631      C1632   1.215       .  T
C1633      C1634   1.369       .  D
C1633      H1635   1.088       .  S
C1634      H1636   1.084       .  S
C1637      C1638   1.369       .  D
C1637      H1639   1.085       .  S
C1638      H1640   1.087       .  S
C1641      C1642   1.329       .  D
C1641      H1643   1.088       .  S
C1642      H1644   1.089       .  S
C1645      C1646   1.370       .  D
C1645      H1647   1.088       .  S
C1646      H1648   1.085       .  S
