geometry optimzed in LAMMPS
_audit_creation_date              2020-12-01 
_audit_creation_method            'lammps2cif' 
_symmetry_space_group_name_H-M    'P1' 
_symmetry_Int_Tables_number       1 
_symmetry_cell_setting            triclinic 
loop_ 
_symmetry_equiv_pos_as_xyz 
  x,y,z 
_cell_length_a                    41.42475779 
_cell_length_b                    41.47453525328078 
_cell_length_c                    62.77044304444196 
_cell_angle_alpha                 90.03131073267107 
_cell_angle_beta                  90.05666680561428 
_cell_angle_gamma                 89.96919798106595 
loop_ 
_atom_site_label 
_atom_site_type_symbol 
_atom_site_fract_x 
_atom_site_fract_y 
_atom_site_fract_z 
_atom_site_charge 
O1          O  0.40368330  0.20005146  0.13380886    -0.69900
O2          O  0.43819094  0.11503660  0.12829961    -0.70200
O3          O  0.41112703  0.15788747  0.10155292    -0.70000
O4          O  0.43118900  0.15723131  0.16057018    -0.70000
O5          O  0.38393338  0.13700356  0.16752573    -0.70000
O6          O  0.36376813  0.13774318  0.10830870    -0.70000
O7          O  0.39074122  0.09519502  0.13515888    -0.70000
O8          O  0.35653397  0.17953484  0.14069030    -0.70100
V9          V  0.42014264  0.15718886  0.13120359     1.35200
V10         V  0.37467958  0.13779716  0.13779927     1.35200
C11         C  0.37411023  0.20404686  0.13809352     0.79300
C12         C  0.42010520  0.09074967  0.13075157     0.79300
C13         C  0.38419066  0.14779390  0.09492328     0.79200
C14         C  0.41107917  0.14687791  0.17401756     0.79200
O15         O  0.49481781  0.72451297  0.13298303    -0.69900
O16         O  0.46102722  0.80970481  0.12653232    -0.70200
O17         O  0.48867497  0.76623203  0.10042443    -0.70000
O18         O  0.46651721  0.76788785  0.15910375    -0.70000
O19         O  0.51354091  0.78804615  0.16681283    -0.70000
O20         O  0.53598426  0.78602772  0.10778166    -0.70000
O21         O  0.50840214  0.82928906  0.13398415    -0.70000
O22         O  0.54178744  0.74486249  0.14064230    -0.70100
V23         V  0.47867117  0.76744429  0.12992744     1.35200
V24         V  0.52400365  0.78663175  0.13717677     1.35200
C25         C  0.52423778  0.72041667  0.13772581     0.79300
C26         C  0.47921384  0.83389545  0.12915756     0.79300
C27         C  0.51592629  0.77587602  0.09411646     0.79200
C28         C  0.48603307  0.77848399  0.17288109     0.79200
O29         O  0.39899043  0.19846655  0.88316372    -0.69900
O30         O  0.43625718  0.11463725  0.88721800    -0.70200
O31         O  0.42748839  0.15758674  0.85567429    -0.70000
O32         O  0.40812848  0.15562351  0.91471139    -0.70000
O33         O  0.36134019  0.13421398  0.90784293    -0.70000
O34         O  0.38086209  0.13602767  0.84853163    -0.70000
O35         O  0.38940454  0.09343089  0.88024516    -0.70000
O36         O  0.35242125  0.17671822  0.87609814    -0.70100
V37         V  0.41681307  0.15617430  0.88504567     1.35200
V38         V  0.37192025  0.13553178  0.87830572     1.35200
C39         C  0.36928456  0.20164252  0.87902713     0.79300
C40         C  0.41897041  0.08987510  0.88443509     0.79300
C41         C  0.40758745  0.14706020  0.84212527     0.79200
C42         C  0.38156424  0.14459701  0.92129054     0.79200
O43         O  0.49240115  0.72425430  0.88131961    -0.69900
O44         O  0.46272197  0.81098392  0.88627397    -0.70200
O45         O  0.46732948  0.76810056  0.85423399    -0.70000
O46         O  0.48733857  0.76706127  0.91333170    -0.70000
O47         O  0.53577430  0.78437513  0.90652015    -0.70000
O48         O  0.51557678  0.78567241  0.84714249    -0.70000
O49         O  0.51121389  0.82812564  0.87938366    -0.70000
O50         O  0.54060696  0.74204085  0.87427523    -0.70100
V51         V  0.47837702  0.76792924  0.88363810     1.35200
V52         V  0.52484205  0.78469379  0.87695097     1.35200
C53         C  0.52170925  0.71861396  0.87711202     0.79300
C54         C  0.48211496  0.83418587  0.88368660     0.79300
C55         C  0.48791295  0.77717295  0.84068209     0.79200
C56         C  0.51484542  0.77551647  0.91996523     0.79200
O57         O  0.40367366  0.72576455  0.63128998    -0.69900
O58         O  0.43644079  0.81180220  0.62874151    -0.70200
O59         O  0.42943362  0.76748022  0.65970205    -0.70000
O60         O  0.41133600  0.77003888  0.60038292    -0.70000
O61         O  0.36324789  0.78859004  0.60690729    -0.70000
O62         O  0.38161536  0.78644073  0.66655553    -0.70000
O63         O  0.38829606  0.83019563  0.63531187    -0.70000
O64         O  0.35592235  0.74491598  0.63814313    -0.70100
V65         V  0.41929814  0.76910703  0.63018170     1.35200
V66         V  0.37321353  0.78713007  0.63661861     1.35200
C67         C  0.37402861  0.72094098  0.63496556     0.79300
C68         C  0.41769847  0.83553528  0.63153811     0.79300
C69         C  0.40883440  0.77681565  0.67317303     0.79200
C70         C  0.38435680  0.77974282  0.59356273     0.79200
O71         O  0.49241931  0.20232289  0.63445775    -0.69900
O72         O  0.45943347  0.11655187  0.63067205    -0.70200
O73         O  0.46645737  0.16003447  0.66213256    -0.70000
O74         O  0.48487926  0.15888319  0.60298280    -0.70000
O75         O  0.53280150  0.13979972  0.60947332    -0.70000
O76         O  0.51427041  0.14094507  0.66895915    -0.70000
O77         O  0.50741995  0.09778853  0.63735036    -0.70000
O78         O  0.54015624  0.18293188  0.64112288    -0.70100
V79         V  0.47672930  0.15910536  0.63270063     1.35200
V80         V  0.52273216  0.14077349  0.63910707     1.35200
C81         C  0.52201453  0.20701637  0.63836653     0.79300
C82         C  0.47802105  0.09267660  0.63334674     0.79300
C83         C  0.48706368  0.15052378  0.67554272     0.79200
C84         C  0.51177484  0.14901019  0.59618356     0.79200
O85         O  0.39879548  0.72663838  0.38022306    -0.69900
O86         O  0.43014795  0.81311042  0.38319512    -0.70200
O87         O  0.40708458  0.77028971  0.41148915    -0.70000
O88         O  0.42254333  0.76947917  0.35186438    -0.70000
O89         O  0.37411368  0.78771847  0.34605627    -0.70000
O90         O  0.35842329  0.78817594  0.40604574    -0.70000
O91         O  0.38141162  0.83078251  0.37767007    -0.70000
O92         O  0.35041945  0.74509149  0.37447007    -0.70100
V93         V  0.41370335  0.77019124  0.38155457     1.35200
V94         V  0.36704050  0.78754096  0.37614688     1.35200
C95         C  0.36908724  0.72138652  0.37704419     0.79300
C96         C  0.41084812  0.83653781  0.38103588     0.79300
C97         C  0.38030237  0.77946749  0.41890516     0.79200
C98         C  0.40122443  0.77879240  0.33886644     0.79200
O99         O  0.48823159  0.20179503  0.38311889    -0.69900
O100        O  0.45068502  0.11810635  0.38782149    -0.70200
O101        O  0.47804006  0.15992793  0.41520155    -0.70000
O102        O  0.46050455  0.15995431  0.35580907    -0.70000
O103        O  0.50732647  0.13807096  0.34972859    -0.70000
O104        O  0.52498748  0.13822039  0.40927370    -0.70000
O105        O  0.49773996  0.09663819  0.38186569    -0.70000
O106        O  0.53496000  0.17970190  0.37706488    -0.70100
V107        V  0.47027105  0.15956129  0.38537536     1.35200
V108        V  0.51533417  0.13862244  0.37960345     1.35200
C109        C  0.51805558  0.20478004  0.37929866     0.79300
C110        C  0.46802308  0.09323484  0.38556035     0.79300
C111        C  0.50436245  0.14894828  0.42230164     0.79200
C112        C  0.48078719  0.14878936  0.34274447     0.79200
O113        O  0.18913318  0.41849506  0.13124980    -0.69900
O114        O  0.10467657  0.45521668  0.12803027    -0.70200
O115        O  0.14920620  0.44811325  0.15896623    -0.70000
O116        O  0.14457273  0.42611392  0.10029278    -0.70000
O117        O  0.12354300  0.37969677  0.10841629    -0.70000
O118        O  0.12831937  0.40173291  0.16733696    -0.70000
O119        O  0.08407439  0.40868591  0.13635925    -0.70000
O120        O  0.16783210  0.37223846  0.13946482    -0.70100
V121        V  0.14653583  0.43608355  0.12979989     1.35200
V122        V  0.12640493  0.39149393  0.13774099     1.35200
C123        C  0.19263620  0.38902159  0.13591716     0.79300
C124        C  0.08009589  0.43795204  0.13159061     0.79300
C125        C  0.13935459  0.42880800  0.17307407     0.79200
C126        C  0.13298189  0.39941935  0.09438611     0.79200
O127        O  0.71254076  0.50875053  0.13345917    -0.69900
O128        O  0.79876443  0.47665412  0.12876524    -0.70200
O129        O  0.75551360  0.48211233  0.16060251    -0.70000
O130        O  0.75565319  0.50260757  0.10162969    -0.70000
O131        O  0.77431055  0.55042017  0.10870604    -0.70000
O132        O  0.77431937  0.52973252  0.16805951    -0.70000
O133        O  0.81708304  0.52454935  0.13602181    -0.70000
O134        O  0.73169086  0.55629077  0.14079030    -0.70100
V135        V  0.75596152  0.49344864  0.13127210     1.35200
V136        V  0.77395743  0.53930679  0.13826787     1.35200
C137        C  0.70768529  0.53816278  0.13780323     0.79300
C138        C  0.82249280  0.49540999  0.13155384     0.79300
C139        C  0.76498688  0.50226741  0.17432303     0.79200
C140        C  0.76506448  0.52981122  0.09512667     0.79200
O141        O  0.18451100  0.41645208  0.88362306    -0.69900
O142        O  0.10041950  0.45377396  0.88563942    -0.70200
O143        O  0.13997828  0.42586718  0.91421909    -0.70000
O144        O  0.14497875  0.44476159  0.85511661    -0.70000
O145        O  0.12373819  0.39814877  0.84767972    -0.70000
O146        O  0.11886319  0.37911271  0.90702860    -0.70000
O147        O  0.07956691  0.40691364  0.87836319    -0.70000
O148        O  0.16302106  0.36991719  0.87625610    -0.70100
V149        V  0.14209086  0.43430809  0.88450915     1.35200
V150        V  0.12174396  0.38943405  0.87747511     1.35200
C151        C  0.18784663  0.38675873  0.87960480     0.79300
C152        C  0.07579967  0.43648632  0.88229012     0.79300
C153        C  0.12849896  0.39942101  0.92065667     0.79200
C154        C  0.13500597  0.42483327  0.84140614     0.79200
O155        O  0.70929186  0.50883233  0.88289607    -0.69900
O156        O  0.79584225  0.47762688  0.88515139    -0.70200
O157        O  0.75394372  0.50187804  0.91375185    -0.70000
O158        O  0.75114320  0.48410302  0.85439218    -0.70000
O159        O  0.76912487  0.53225142  0.84759037    -0.70000
O160        O  0.77166001  0.55022095  0.90726729    -0.70000
O161        O  0.81336504  0.52604332  0.87859393    -0.70000
O162        O  0.72747450  0.55694410  0.87615962    -0.70100
V163        V  0.75288185  0.49404873  0.88392093     1.35200
V164        V  0.77002973  0.54042624  0.87753425     1.35200
C165        C  0.70388144  0.53829973  0.87915200     0.79300
C166        C  0.81920027  0.49671410  0.88218195     0.79300
C167        C  0.76328059  0.52894226  0.92060319     0.79200
C168        C  0.75985961  0.50496844  0.84094531     0.79200
O169        O  0.70727429  0.42016222  0.63262298    -0.69900
O170        O  0.79395652  0.45104826  0.62842036    -0.70200
O171        O  0.75070127  0.42572568  0.60098170    -0.70000
O172        O  0.75030851  0.44599436  0.66001203    -0.70000
O173        O  0.76850527  0.39809727  0.66739010    -0.70000
O174        O  0.76857445  0.37760765  0.60807083    -0.70000
O175        O  0.81163380  0.40287179  0.63556152    -0.70000
O176        O  0.72571455  0.37233572  0.63995996    -0.70100
V177        V  0.75091372  0.43481812  0.63065214     1.35200
V178        V  0.76824872  0.38868318  0.63760679     1.35200
C179        C  0.70198066  0.39083607  0.63694100     0.79300
C180        C  0.81745004  0.43201605  0.63132888     0.79300
C181        C  0.75951937  0.39828166  0.59450428     0.79200
C182        C  0.75939314  0.42561574  0.67369550     0.79200
O183        O  0.18434589  0.51090364  0.63245665    -0.69900
O184        O  0.09932913  0.47533084  0.63037086    -0.70200
O185        O  0.13985844  0.50177351  0.60185654    -0.70000
O186        O  0.14398307  0.48391058  0.66105051    -0.70000
O187        O  0.12365017  0.53108678  0.66805211    -0.70000
O188        O  0.11970359  0.54914893  0.60849775    -0.70000
O189        O  0.07941725  0.52275704  0.63715019    -0.70000
O190        O  0.16380939  0.55801969  0.63936624    -0.70100
V191        V  0.14150364  0.49389414  0.63159165     1.35200
V192        V  0.12206166  0.53932629  0.63815781     1.35200
C193        C  0.18832440  0.54065788  0.63607390     0.79300
C194        C  0.07498096  0.49322886  0.63331119     0.79300
C195        C  0.12912818  0.52835849  0.59512646     0.79200
C196        C  0.13435789  0.50427378  0.67457022     0.79200
O197        O  0.70777741  0.41428115  0.38145855    -0.69900
O198        O  0.79341807  0.44714650  0.38748005    -0.70200
O199        O  0.75132434  0.44129682  0.35497796    -0.70000
O200        O  0.74970096  0.42067904  0.41392877    -0.70000
O201        O  0.76900794  0.37302868  0.40708924    -0.70000
O202        O  0.77093220  0.39388275  0.34781664    -0.70000
O203        O  0.81252337  0.39943867  0.38054176    -0.70000
O204        O  0.72759261  0.36691962  0.37435032    -0.70100
V205        V  0.75092327  0.42993658  0.38431171     1.35200
V206        V  0.76961782  0.38425512  0.37757211     1.35200
C207        C  0.70333667  0.38485308  0.37702206     0.79300
C208        C  0.81744726  0.42866291  0.38503604     0.79300
C209        C  0.76150433  0.42124865  0.34141146     0.79200
C210        C  0.75901703  0.39347574  0.42052721     0.79200
O211        O  0.18353645  0.50814997  0.38288107    -0.69900
O212        O  0.09877559  0.47221228  0.38564031    -0.70200
O213        O  0.14257466  0.48153649  0.35449947    -0.70000
O214        O  0.13993489  0.49837273  0.41393067    -0.70000
O215        O  0.11931658  0.54571356  0.40782928    -0.70000
O216        O  0.12196383  0.52879287  0.34812580    -0.70000
O217        O  0.07849513  0.51964902  0.37938053    -0.70000
O218        O  0.16260092  0.55530697  0.37663542    -0.70100
V219        V  0.14081125  0.49096828  0.38409311     1.35200
V220        V  0.12100490  0.53642411  0.37809340     1.35200
C221        C  0.18726841  0.53796697  0.37942833     0.79300
C222        C  0.07429484  0.49007084  0.38311790     0.79300
C223        C  0.13276637  0.50223004  0.34124742     0.79200
C224        C  0.12919536  0.52479485  0.42095706     0.79200
C225        C  0.97952043  0.46420282  0.38639192     0.18900
C226        C  0.95900795  0.48006974  0.37203580    -0.10300
C227        C  0.92565432  0.47484526  0.37275882    -0.11100
C228        C  0.91252236  0.45376998  0.38787462     0.20400
C229        C  0.93299953  0.43797767  0.40231331    -0.13100
C230        C  0.96640389  0.44321700  0.40159332    -0.11400
C231        C  0.87827557  0.44734619  0.38793838     0.01400
C232        C  0.85001689  0.44026935  0.38709205    -0.31400
C233        C  0.01384343  0.47013302  0.38565814     0.02800
C234        C  0.04201377  0.47749889  0.38461575    -0.33100
H235        H  0.96880769  0.49644029  0.36026520     0.13800
H236        H  0.91013633  0.48707019  0.36143617     0.13600
H237        H  0.92318065  0.42149093  0.41400492     0.13500
H238        H  0.98196591  0.43089151  0.41283955     0.12500
C239        C  0.12718072  0.53467278  0.48566419     0.18900
C240        C  0.13619580  0.56285514  0.49649463    -0.10300
C241        C  0.13601313  0.56365508  0.51882018    -0.11100
C242        C  0.12680308  0.53627669  0.53041331     0.20400
C243        C  0.11780197  0.50813915  0.51955891    -0.13100
C244        C  0.11798681  0.50734010  0.49728098    -0.11400
C245        C  0.12711023  0.53655635  0.55340219     0.01400
C246        C  0.12767175  0.53437073  0.57258600    -0.31400
C247        C  0.12768064  0.53343340  0.46268922     0.02800
C248        C  0.12818358  0.53060108  0.44353888    -0.33100
H249        H  0.14345415  0.58411500  0.48770301     0.13800
H250        H  0.14315670  0.58551174  0.52701727     0.13600
H251        H  0.11076790  0.48677116  0.52832311     0.13500
H252        H  0.11106923  0.48537640  0.48911686     0.12500
C253        C  0.75636096  0.38213045  0.48517806     0.18900
C254        C  0.73282286  0.39980874  0.49619873    -0.10300
C255        C  0.73303311  0.40079140  0.51850755    -0.11100
C256        C  0.75678734  0.38410673  0.53000871     0.20400
C257        C  0.77996000  0.36591294  0.51901106    -0.13100
C258        C  0.77975141  0.36493178  0.49667910    -0.11400
C259        C  0.75811264  0.38686919  0.55296844     0.01400
C260        C  0.75908115  0.39099087  0.57204358    -0.31400
C261        C  0.75742648  0.38315168  0.46215324     0.02800
C262        C  0.75834361  0.38638635  0.44300672    -0.33100
H263        H  0.71466897  0.41331852  0.48754014     0.13800
H264        H  0.71501757  0.41501531  0.52676967     0.13600
H265        H  0.79850473  0.35295843  0.52767341     0.13500
H266        H  0.79815935  0.35126412  0.48839083     0.12500
C267        C  0.98010933  0.46696920  0.63057400     0.18900
C268        C  0.96826966  0.43541674  0.63222861    -0.10300
C269        C  0.93493456  0.42968091  0.63177990    -0.11100
C270        C  0.91319820  0.45545181  0.62967437     0.20400
C271        C  0.92505547  0.48697448  0.62793981    -0.13100
C272        C  0.95837015  0.49270648  0.62838505    -0.11400
C273        C  0.87882583  0.44947494  0.62960961     0.01400
C274        C  0.85039745  0.44290827  0.63004400    -0.31400
C275        C  0.01441214  0.47322734  0.63137206     0.02800
C276        C  0.04259051  0.48072846  0.63219112    -0.33100
H277        H  0.98476463  0.41529606  0.63395568     0.13800
H278        H  0.92610962  0.40519593  0.63317058     0.13600
H279        H  0.90856442  0.50712264  0.62634034     0.13500
H280        H  0.96717404  0.51721468  0.62711840     0.12500
C281        C  0.75928843  0.45404742  0.73618796     0.18900
C282        C  0.78757943  0.45284601  0.74844729    -0.10300
C283        C  0.78764251  0.46448443  0.76941294    -0.11100
C284        C  0.75943224  0.47747783  0.77829531     0.20400
C285        C  0.73112327  0.47865461  0.76604511    -0.13100
C286        C  0.73106039  0.46701341  0.74507333    -0.11400
C287        C  0.75942647  0.48896742  0.80006198     0.01400
C288        C  0.75956592  0.49733188  0.81853333    -0.31400
C289        C  0.75937346  0.44254307  0.71442513     0.02800
C290        C  0.75946906  0.43394346  0.69600098    -0.33100
H291        H  0.80958751  0.44296876  0.74179395     0.13800
H292        H  0.80967041  0.46330889  0.77870054     0.13600
H293        H  0.70911406  0.48851846  0.77270561     0.13500
H294        H  0.70903139  0.46817170  0.73578569     0.12500
C295        C  0.13605912  0.47632401  0.73698804     0.18900
C296        C  0.10737554  0.46556984  0.74644499    -0.10300
C297        C  0.10759300  0.45379806  0.76734784    -0.11100
C298        C  0.13650523  0.45263080  0.77894431     0.20400
C299        C  0.16522572  0.46329686  0.76947487    -0.13100
C300        C  0.16500843  0.47507437  0.74855694    -0.11400
C301        C  0.13650746  0.44122843  0.80067890     0.01400
C302        C  0.13603887  0.43283455  0.81910941    -0.31400
C303        C  0.13579393  0.48803750  0.71532397     0.02800
C304        C  0.13522890  0.49655939  0.69691793    -0.33100
H305        H  0.08485948  0.46628346  0.73766429     0.13800
H306        H  0.08521260  0.44571377  0.77448517     0.13600
H307        H  0.18772693  0.46260751  0.77827213     0.13500
H308        H  0.18737529  0.48319142  0.74141803     0.12500
C309        C  0.91468531  0.47374639  0.88272712     0.18900
C310        C  0.92726761  0.44492521  0.87458565    -0.10300
C311        C  0.96062937  0.43977074  0.87448907    -0.11100
C312        C  0.98156201  0.46340660  0.88250014     0.20400
C313        C  0.96900414  0.49232557  0.89051314    -0.13100
C314        C  0.93562460  0.49748482  0.89060658    -0.11400
C315        C  0.01578702  0.45746361  0.88281794     0.01400
C316        C  0.04384262  0.44974481  0.88283779    -0.31400
C317        C  0.88037729  0.47922665  0.88282171     0.02800
C318        C  0.85200267  0.48568820  0.88274830    -0.33100
H319        H  0.91133146  0.42647276  0.86837775     0.13800
H320        H  0.97010065  0.41729743  0.86826430     0.13600
H321        H  0.98494749  0.51074455  0.89675384     0.13500
H322        H  0.92613756  0.51992999  0.89686128     0.12500
C323        C  0.76340534  0.45019150  0.27898143     0.18900
C324        C  0.75221517  0.48130982  0.27423475    -0.10300
C325        C  0.75278630  0.49274226  0.25321838    -0.11100
C326        C  0.76457965  0.47317081  0.23674180     0.20400
C327        C  0.77572142  0.44202908  0.24148210    -0.13100
C328        C  0.77514994  0.43059513  0.26250153    -0.11400
C329        C  0.76503291  0.48486254  0.21500128     0.01400
C330        C  0.76520525  0.49371622  0.19661709    -0.31400
C331        C  0.76295734  0.43854695  0.30073000     0.02800
C332        C  0.76244220  0.42978797  0.31912866    -0.33100
H333        H  0.74306680  0.49675276  0.28678418     0.13800
H334        H  0.74403463  0.51681377  0.24982526     0.13600
H335        H  0.78484664  0.42657914  0.22892963     0.13500
H336        H  0.78387777  0.40651488  0.26589536     0.12500
C337        C  0.76617464  0.54046636  0.03034050     0.18900
C338        C  0.78960340  0.52292538  0.01912725    -0.10300
C339        C  0.78943739  0.52251018  0.99680795    -0.11100
C340        C  0.76583563  0.53963037  0.98545523     0.20400
C341        C  0.74250294  0.55736972  0.99664900    -0.13100
C342        C  0.74266747  0.55778329  0.01900356    -0.11400
C343        C  0.76507022  0.53805514  0.96241407     0.01400
C344        C  0.76440816  0.53503515  0.94323086    -0.31400
C345        C  0.76571057  0.53958688  0.05339911     0.02800
C346        C  0.76547951  0.53663904  0.07258818    -0.33100
H347        H  0.80780881  0.50928126  0.02764361     0.13800
H348        H  0.80752617  0.50856770  0.98840906     0.13600
H349        H  0.72401501  0.57059779  0.98811459     0.13500
H350        H  0.72429485  0.57130839  0.02742809     0.12500
C351        C  0.13715642  0.47823817  0.27809350     0.18900
C352        C  0.15937511  0.45453356  0.27183634    -0.10300
C353        C  0.16058318  0.44422720  0.25059145    -0.11100
C354        C  0.13955676  0.45754135  0.23544805     0.20400
C355        C  0.11751762  0.48142573  0.24167296    -0.13100
C356        C  0.11630825  0.49172878  0.26291488    -0.11400
C357        C  0.14029924  0.44654791  0.21360712     0.01400
C358        C  0.14022705  0.43786897  0.19521742    -0.31400
C359        C  0.13535305  0.48817712  0.30012682     0.02800
C360        C  0.13393758  0.49540386  0.31876431    -0.33100
H361        H  0.17561129  0.44387051  0.28340444     0.13800
H362        H  0.17774612  0.42577776  0.24601082     0.13600
H363        H  0.10113929  0.49194258  0.23013392     0.13500
H364        H  0.09900179  0.51002893  0.26752093     0.12500
C365        C  0.12490066  0.38711069  0.98521611     0.18900
C366        C  0.09946456  0.40080811  0.99684767    -0.10300
C367        C  0.10013852  0.40056394  0.01916268    -0.11100
C368        C  0.12625378  0.38662036  0.03001268     0.20400
C369        C  0.15140453  0.37242521  0.01838226    -0.13100
C370        C  0.15073019  0.37266834  0.99606846    -0.11400
C371        C  0.12809943  0.38850121  0.05296641     0.01400
C372        C  0.13020305  0.39214927  0.07202617    -0.31400
C373        C  0.12530541  0.38933599  0.96224581     0.02800
C374        C  0.12640636  0.39288887  0.94314437    -0.33100
H375        H  0.07942392  0.41218661  0.98867826     0.13800
H376        H  0.08061682  0.41177370  0.02793980     0.13600
H377        H  0.17181195  0.36171873  0.02655048     0.13500
H378        H  0.17061862  0.36212948  0.98729087     0.12500
C379        C  0.91829811  0.47351828  0.12880508     0.18900
C380        C  0.93707683  0.48508244  0.14575982    -0.10300
C381        C  0.97057591  0.48063639  0.14574854    -0.11100
C382        C  0.98555330  0.46466657  0.12873947     0.20400
C383        C  0.96682052  0.45334349  0.11168421    -0.13100
C384        C  0.93329548  0.45779409  0.11169505    -0.11400
C385        C  0.01982201  0.45844778  0.12929103     0.01400
C386        C  0.04793773  0.45083378  0.13015767    -0.31400
C387        C  0.88377969  0.47827070  0.12895612     0.02800
C388        C  0.85528278  0.48433407  0.12977380    -0.33100
H389        H  0.92579578  0.49740292  0.15904323     0.13800
H390        H  0.98472794  0.48934693  0.15907595     0.13600
H391        H  0.97808837  0.44079826  0.09848896     0.13500
H392        H  0.91909739  0.44886356  0.09845469     0.12500
C393        C  0.57105339  0.28702068  0.37495357     0.18900
C394        C  0.59055107  0.29064329  0.35687273    -0.10300
C395        C  0.61461760  0.31431024  0.35642636    -0.11100
C396        C  0.61935035  0.33453178  0.37405654     0.20400
C397        C  0.59928453  0.33148562  0.39191548    -0.13100
C398        C  0.57520205  0.30780132  0.39236247    -0.11400
C399        C  0.64659944  0.35618468  0.37456151     0.01400
C400        C  0.67147266  0.37131198  0.37544904    -0.31400
C401        C  0.54887164  0.26029117  0.37630830     0.02800
C402        C  0.53302597  0.23594447  0.37764937    -0.33100
H403        H  0.58780083  0.27455207  0.34338774     0.13800
H404        H  0.63016076  0.31618000  0.34261142     0.13600
H405        H  0.60289363  0.34673829  0.40573089     0.13500
H406        H  0.56049673  0.30507011  0.40650755     0.12500
C407        C  0.27061112  0.58983682  0.37880685     0.18900
C408        C  0.27881264  0.60650666  0.39747268    -0.10300
C409        C  0.30286268  0.63019030  0.39707744    -0.11100
C410        C  0.31891035  0.63739438  0.37801354     0.20400
C411        C  0.31128153  0.62017654  0.35945061    -0.13100
C412        C  0.28720566  0.59646086  0.35984694    -0.11400
C413        C  0.34085856  0.66439009  0.37717243     0.01400
C414        C  0.35600302  0.68927077  0.37683972    -0.31400
C415        C  0.24345213  0.56803319  0.37879564     0.02800
C416        C  0.21878997  0.55249459  0.37896839    -0.33100
H417        H  0.26598037  0.60185628  0.41218668     0.13800
H418        H  0.30826194  0.64354330  0.41148565     0.13600
H419        H  0.32324784  0.62573257  0.34455970     0.13500
H420        H  0.28090628  0.58397357  0.34526311     0.12500
C421        C  0.43208300  0.93218580  0.38476259     0.18900
C422        C  0.45335289  0.94540370  0.39976767    -0.10300
C423        C  0.45766789  0.97882328  0.40086339    -0.11100
C424        C  0.44068016  0.99920539  0.38700793     0.20400
C425        C  0.41919779  0.98600726  0.37211986    -0.13100
C426        C  0.41487755  0.95258345  0.37102677    -0.11400
C427        C  0.44675977  0.03340023  0.38730242     0.01400
C428        C  0.45462505  0.06139405  0.38692298    -0.31400
C429        C  0.42748654  0.89779606  0.38360542     0.02800
C430        C  0.42162626  0.86935429  0.38249306    -0.33100
H431        H  0.46668638  0.92990210  0.41051816     0.13800
H432        H  0.47450748  0.98874383  0.41234621     0.13600
H433        H  0.40609453  0.00148936  0.36123312     0.13500
H434        H  0.39826277  0.94263894  0.35941003     0.12500
C435        C  0.61796494  0.34089136  0.64039824     0.18900
C436        C  0.59804089  0.33596789  0.62262083    -0.10300
C437        C  0.57469789  0.31152537  0.62285407    -0.11100
C438        C  0.57115147  0.29184982  0.64086126     0.20400
C439        C  0.59039932  0.29744672  0.65886663    -0.13100
C440        C  0.61371200  0.32186678  0.65863531    -0.11400
C441        C  0.55008216  0.26413564  0.64020983     0.01400
C442        C  0.53539297  0.23899376  0.63944306    -0.31400
C443        C  0.64484840  0.36296972  0.63923575     0.02800
C444        C  0.66976978  0.37801178  0.63818078    -0.33100
H445        H  0.60128138  0.35026499  0.60834291     0.13800
H446        H  0.56018777  0.30728521  0.60876262     0.13600
H447        H  0.58813164  0.28224589  0.67281866     0.13500
H448        H  0.62915716  0.32517296  0.67240262     0.12500
C449        C  0.51701611  0.14720830  0.48682534     0.18900
C450        C  0.50549285  0.12063506  0.49831196    -0.10300
C451        C  0.50708620  0.12046534  0.52058342    -0.11100
C452        C  0.52023034  0.14685937  0.53151498     0.20400
C453        C  0.53203308  0.17331350  0.52002664    -0.13100
C454        C  0.53044086  0.17348256  0.49774112    -0.11400
C455        C  0.52012763  0.14738272  0.55448705     0.01400
C456        C  0.51781245  0.14800576  0.57365313    -0.31400
C457        C  0.51411073  0.14788278  0.46393059     0.02800
C458        C  0.51042635  0.14841544  0.44485060    -0.33100
H459        H  0.49493940  0.10023649  0.49007046     0.13800
H460        H  0.49768734  0.09996510  0.52928164     0.13600
H461        H  0.54205539  0.19395141  0.52829414     0.13500
H462        H  0.53930944  0.19422192  0.48905083     0.12500
C463        C  0.27224433  0.59182152  0.63457961     0.18900
C464        C  0.29363684  0.59429143  0.65184168    -0.10300
C465        C  0.31833139  0.61741140  0.65163275    -0.11100
C466        C  0.32178534  0.63817985  0.63415510     0.20400
C467        C  0.30090591  0.63510872  0.61668246    -0.13100
C468        C  0.27625784  0.61204231  0.61689306    -0.11400
C469        C  0.34460014  0.66450767  0.63481025     0.01400
C470        C  0.36035366  0.68903440  0.63508251    -0.31400
C471        C  0.24477262  0.57040033  0.63554171     0.02800
C472        C  0.21994015  0.55510324  0.63602110    -0.33100
H473        H  0.29069015  0.57898223  0.66567913     0.13800
H474        H  0.33409908  0.61970073  0.66532907     0.13600
H475        H  0.30308166  0.65118080  0.60315822     0.13500
H476        H  0.25977947  0.61058244  0.60351064     0.12500
C477        C  0.37339383  0.78063288  0.52875949     0.18900
C478        C  0.36796893  0.80931695  0.51748132    -0.10300
C479        C  0.36749882  0.80918659  0.49514565    -0.11100
C480        C  0.37244632  0.78037075  0.48390244     0.20400
C481        C  0.37770143  0.75166498  0.49518774    -0.13100
C482        C  0.37817065  0.75179527  0.51751218    -0.11400
C483        C  0.37315281  0.78037323  0.46085576     0.01400
C484        C  0.37525227  0.78012741  0.44162809    -0.31400
C485        C  0.37513831  0.78089483  0.55178296     0.02800
C486        C  0.37817836  0.78068764  0.57095908    -0.33100
H487        H  0.36440864  0.83181353  0.52593947     0.13800
H488        H  0.36357622  0.83158344  0.48665411     0.13600
H489        H  0.38172924  0.72924232  0.48673270     0.13500
H490        H  0.38255995  0.72947192  0.52599240     0.12500
C491        C  0.45330022  0.99760207  0.63033736     0.18900
C492        C  0.42168437  0.98581181  0.62882532    -0.13500
C493        C  0.41603845  0.95251963  0.62855739    -0.11100
C494        C  0.44195510  0.93081237  0.62979703     0.20400
C495        C  0.47356896  0.94261206  0.63121235    -0.13100
C496        C  0.47921304  0.97589143  0.63147701    -0.11400
C497        C  0.43594493  0.89653581  0.62997036     0.01400
C498        C  0.42913918  0.86822829  0.63047685    -0.31400
C499        C  0.45933079  0.03186129  0.63098660     0.02800
C500        C  0.46637164  0.06009045  0.63187415    -0.33100
H501        H  0.40144582  0.00230744  0.62795705     0.13800
H502        H  0.39146705  0.94370616  0.62749505     0.13600
H503        H  0.49379875  0.92612400  0.63221798     0.13500
H504        H  0.50377335  0.98469693  0.63267352     0.12500
C505        C  0.61897036  0.58685943  0.87803905     0.18900
C506        C  0.61100557  0.60389653  0.89657787    -0.10300
C507        C  0.58688293  0.62745705  0.89607338    -0.11100
C508        C  0.57055615  0.63415879  0.87702598     0.20400
C509        C  0.57790442  0.61655341  0.85858422    -0.13100
C510        C  0.60207617  0.59293238  0.85909139    -0.11400
C511        C  0.54879093  0.66121508  0.87609999     0.01400
C512        C  0.53410289  0.68633154  0.87613539    -0.31400
C513        C  0.64645540  0.56557081  0.87811301     0.02800
C514        C  0.67166352  0.55101124  0.87850827    -0.33100
H515        H  0.62414741  0.59969690  0.91125206     0.13800
H516        H  0.58170063  0.64117569  0.91036248     0.13600
H517        H  0.56571556  0.62178652  0.84370256     0.13500
H518        H  0.60827594  0.58017199  0.84459745     0.12500
C519        C  0.43658137  0.77742764  0.73586049     0.18900
C520        C  0.44747745  0.80622227  0.74514236    -0.10300
C521        C  0.45897993  0.80643336  0.76616229    -0.11100
C522        C  0.45974498  0.77784292  0.77807900     0.20400
C523        C  0.44886603  0.74905500  0.76879123    -0.13100
C524        C  0.43736560  0.74884425  0.74777829    -0.11400
C525        C  0.47115451  0.77806294  0.79988899     0.01400
C526        C  0.47966972  0.77786920  0.81834558    -0.31400
C527        C  0.42516875  0.77711597  0.71404786     0.02800
C528        C  0.41671937  0.77689057  0.69557539    -0.33100
H529        H  0.44712034  0.82848416  0.73612983     0.13800
H530        H  0.46722976  0.82888328  0.77311992     0.13600
H531        H  0.44923392  0.72678752  0.77779779     0.13500
H532        H  0.42912885  0.72638786  0.74082325     0.12500
C533        C  0.26952906  0.33284084  0.87910958     0.18900
C534        C  0.28923594  0.32873630  0.86115915    -0.10300
C535        C  0.31272569  0.30441863  0.86090649    -0.11100
C536        C  0.31655120  0.28414818  0.87860044     0.20400
C537        C  0.29720607  0.28866343  0.89664757    -0.13100
C538        C  0.27378336  0.31291309  0.89689969    -0.11400
C539        C  0.33859862  0.25730515  0.87790165     0.01400
C540        C  0.35435949  0.23284544  0.87807632    -0.31400
C541        C  0.24329604  0.35564234  0.87884187     0.02800
C542        C  0.21908349  0.37180252  0.87907298    -0.33100
H543        H  0.28594301  0.34378754  0.84722599     0.13800
H544        H  0.32735022  0.30096585  0.84678725     0.13600
H545        H  0.29972910  0.27295869  0.91033731     0.13500
H546        H  0.25847345  0.31562569  0.91077461     0.12500
C547        C  0.45885327  0.14962855  0.73781538     0.18900
C548        C  0.47619073  0.16508058  0.75405117    -0.10300
C549        C  0.46461188  0.16468452  0.77499260    -0.11100
C550        C  0.43562300  0.14886769  0.77981756     0.20400
C551        C  0.41823148  0.13350513  0.76357020    -0.13100
C552        C  0.42980987  0.13390159  0.74262903    -0.11400
C553        C  0.42405448  0.14808266  0.80146805     0.01400
C554        C  0.41558540  0.14749070  0.81985845    -0.31400
C555        C  0.47063198  0.15005432  0.71620790     0.02800
C556        C  0.47922404  0.15029765  0.69783749    -0.33100
H557        H  0.49862251  0.17737536  0.75053156     0.13800
H558        H  0.47829353  0.17662525  0.78742285     0.13600
H559        H  0.39581955  0.12117693  0.76709448     0.13500
H560        H  0.41614711  0.12192724  0.73020371     0.12500
C561        C  0.44796971  0.99626329  0.88725676     0.18900
C562        C  0.43300993  0.97626134  0.90229215    -0.10300
C563        C  0.43875140  0.94301336  0.90207889    -0.11100
C564        C  0.45942105  0.92961495  0.88680161     0.20400
C565        C  0.47458040  0.94965302  0.87187616    -0.13100
C566        C  0.46883812  0.98289101  0.87208804    -0.11400
C567        C  0.46523493  0.89538809  0.88638085     0.01400
C568        C  0.47163447  0.86705287  0.88547107    -0.31400
C569        C  0.44065724  0.03019868  0.88679464     0.02800
C570        C  0.43229082  0.05802165  0.88595935    -0.33100
H571        H  0.41668607  0.98631706  0.91401546     0.13800
H572        H  0.42694603  0.92776385  0.91371882     0.13600
H573        H  0.49065506  0.93956104  0.86001596     0.13500
H574        H  0.48039350  0.99809113  0.86030998     0.12500
C575        C  0.62416219  0.58932420  0.13891115     0.18900
C576        C  0.60471586  0.59379242  0.15696294    -0.10300
C577        C  0.58082512  0.61778190  0.15705918    -0.11100
C578        C  0.57628341  0.63741087  0.13910718     0.20400
C579        C  0.59533272  0.63247458  0.12095827    -0.13100
C580        C  0.61914777  0.60855878  0.12086201    -0.11400
C581        C  0.55396373  0.66416973  0.13963415     0.01400
C582        C  0.53829004  0.68874957  0.13919692    -0.31400
C583        C  0.65093960  0.56701140  0.13928886     0.02800
C584        C  0.67567790  0.55156257  0.13889806    -0.33100
H585        H  0.60854252  0.57931950  0.17110251     0.13800
H586        H  0.56647843  0.62152697  0.17126862     0.13600
H587        H  0.59231414  0.64765468  0.10705535     0.13500
H588        H  0.63420783  0.60561393  0.10688961     0.12500
C589        C  0.42860546  0.78037635  0.27622421     0.18900
C590        C  0.43498162  0.80963066  0.26583329    -0.10300
C591        C  0.44762013  0.80971007  0.24510757    -0.11100
C592        C  0.45406133  0.78052908  0.23461644     0.20400
C593        C  0.44755133  0.75130572  0.24498177    -0.13100
C594        C  0.43491993  0.75122630  0.26568660    -0.11400
C595        C  0.46692030  0.78046126  0.21317533     0.01400
C596        C  0.47665285  0.77980782  0.19499844    -0.31400
C597        C  0.41662801  0.78016921  0.29788773     0.02800
C598        C  0.40826568  0.77961056  0.31636167    -0.33100
H599        H  0.43035635  0.83235932  0.27378737     0.13800
H600        H  0.45242225  0.83248741  0.23729708     0.13600
H601        H  0.45230101  0.72856575  0.23707348     0.13500
H602        H  0.43025175  0.72843729  0.27351772     0.12500
C603        C  0.52703068  0.77576918  0.98464696     0.18900
C604        C  0.54428167  0.75203224  0.99580821    -0.10300
C605        C  0.54467815  0.75211703  0.01816692    -0.11100
C606        C  0.52783372  0.77594662  0.02950303     0.20400
C607        C  0.51082672  0.79976725  0.01831165    -0.13100
C608        C  0.51042919  0.79968134  0.99601036    -0.11400
C609        C  0.52677417  0.77547885  0.05253923     0.01400
C610        C  0.52340088  0.77560616  0.07168632    -0.31400
C611        C  0.52530707  0.77520323  0.96162532     0.02800
C612        C  0.52178576  0.77526789  0.94248368    -0.33100
H613        H  0.55710745  0.73330478  0.98725282     0.13800
H614        H  0.55778581  0.73344364  0.02658911     0.13600
H615        H  0.49755333  0.81821892  0.02683532     0.13500
H616        H  0.49687322  0.81807812  0.98762734     0.12500
C617        C  0.27419508  0.33504136  0.14065323     0.18900
C618        C  0.26942427  0.30710313  0.15279236    -0.10300
C619        C  0.29308392  0.28306028  0.15336773    -0.11100
C620        C  0.32177420  0.28670449  0.14181243     0.20400
C621        C  0.32699147  0.31501855  0.13009285    -0.13100
C622        C  0.30324865  0.33914675  0.12951581    -0.11400
C623        C  0.34438263  0.26022571  0.14082519     0.01400
C624        C  0.36004636  0.23569276  0.13969911    -0.31400
C625        C  0.24823898  0.35812054  0.13867187     0.02800
C626        C  0.22403851  0.37426220  0.13718950    -0.33100
H627        H  0.24703572  0.30352609  0.16138601     0.13800
H628        H  0.28862867  0.26123550  0.16237500     0.13600
H629        H  0.34897704  0.31806609  0.12098410     0.13500
H630        H  0.30719622  0.36055082  0.11999051     0.12500
C631        C  0.45670303  0.14669280  0.27964164     0.18900
C632        C  0.46543212  0.17202901  0.26606223    -0.10300
C633        C  0.45568667  0.17175001  0.24470799    -0.11100
C634        C  0.43711927  0.14614508  0.23680500     0.20400
C635        C  0.42848649  0.12073462  0.25036133    -0.13100
C636        C  0.43823586  0.12101414  0.27172536    -0.11400
C637        C  0.42702528  0.14600069  0.21481110     0.01400
C638        C  0.41918049  0.14625233  0.19628318    -0.31400
C639        C  0.46623856  0.14730762  0.30173782     0.02800
C640        C  0.47348853  0.14800938  0.32036410    -0.33100
H641        H  0.47965671  0.19203598  0.27199677     0.13800
H642        H  0.46255100  0.19150795  0.23438567     0.13600
H643        H  0.41417722  0.10078140  0.24443735     0.13500
H644        H  0.43129179  0.10131062  0.28207026     0.12500
C645        C  0.36994227  0.14478063  0.98578823     0.18900
C646        C  0.36882398  0.11596636  0.99742087    -0.10300
C647        C  0.36934174  0.11670890  0.01971738    -0.11100
C648        C  0.37098842  0.14626600  0.03050617     0.20400
C649        C  0.37168293  0.17509389  0.01887549    -0.13100
C650        C  0.37116171  0.17435170  0.99658432    -0.11400
C651        C  0.37347797  0.14694983  0.05341701     0.01400
C652        C  0.37730810  0.14741421  0.07248203    -0.31400
C653        C  0.37150782  0.14400922  0.96284472     0.02800
C654        C  0.37484277  0.14389271  0.94374114    -0.33100
H655        H  0.36807812  0.09294978  0.98926543     0.13800
H656        H  0.36897238  0.09425364  0.02852459     0.13600
H657        H  0.37313667  0.19808543  0.02702166     0.13500
H658        H  0.37223561  0.19678270  0.98777481     0.12500
C659        C  0.45484503  0.92890029  0.12533376     0.18900
C660        C  0.48044156  0.95015997  0.12128041    -0.10300
C661        C  0.47534243  0.98354400  0.12173180    -0.11100
C662        C  0.44459539  0.99586047  0.12625684     0.20400
C663        C  0.41896201  0.97459036  0.13013830    -0.13100
C664        C  0.42405974  0.94122852  0.12969282    -0.11400
C665        C  0.43917388  0.03020444  0.12723889     0.01400
C666        C  0.43221612  0.05841639  0.12858549    -0.31400
C667        C  0.46055043  0.89457679  0.12576697     0.02800
C668        C  0.46738697  0.86631332  0.12688123    -0.33100
H669        H  0.50440059  0.94092973  0.11797395     0.13800
H670        H  0.49535851  0.99969433  0.11872074     0.13600
H671        H  0.39507386  0.98381159  0.13367280     0.13500
H672        H  0.40411283  0.92509660  0.13293751     0.12500
loop_ 
_geom_bond_atom_site_label_1 
_geom_bond_atom_site_label_2 
_geom_bond_distance 
_geom_bond_site_symmetry_2 
_ccdc_geom_bond_type 
O1            V9   1.911       .  S
O1           C11   1.265       .  A
O2            V9   1.910       .  S
O2           C12   1.265       .  A
O3            V9   1.898       .  S
O3           C13   1.262       .  A
O4            V9   1.899       .  S
O4           C14   1.262       .  A
O5           V10   1.905       .  S
O5           C14   1.264       .  A
O6           V10   1.905       .  S
O6           C13   1.264       .  A
O7           V10   1.895       .  S
O7           C12   1.261       .  A
O8           V10   1.896       .  S
O8           C11   1.262       .  A
V9           V10   2.090       .  T
C11         C624   1.439       .  S
C12         C666   1.438       .  S
C13         C652   1.437       .  S
C14         C638   1.437       .  S
O15          V23   1.911       .  S
O15          C25   1.266       .  A
O16          V23   1.911       .  S
O16          C26   1.266       .  A
O17          V23   1.899       .  S
O17          C27   1.262       .  A
O18          V23   1.900       .  S
O18          C28   1.262       .  A
O19          V24   1.911       .  S
O19          C28   1.266       .  A
O20          V24   1.911       .  S
O20          C27   1.266       .  A
O21          V24   1.894       .  S
O21          C26   1.261       .  A
O22          V24   1.895       .  S
O22          C25   1.261       .  A
V23          V24   2.090       .  T
C25         C582   1.439       .  S
C26         C668   1.438       .  S
C27         C610   1.442       .  S
C28         C596   1.443       .  S
O29          V37   1.906       .  S
O29          C39   1.264       .  A
O30          V37   1.906       .  S
O30          C40   1.264       .  A
O31          V37   1.897       .  S
O31          C41   1.262       .  A
O32          V37   1.897       .  S
O32          C42   1.262       .  A
O33          V38   1.906       .  S
O33          C42   1.264       .  A
O34          V38   1.906       .  S
O34          C41   1.264       .  A
O35          V38   1.894       .  S
O35          C40   1.261       .  A
O36          V38   1.894       .  S
O36          C39   1.261       .  A
V37          V38   2.090       .  T
C39         C540   1.435       .  S
C40         C570   1.435       .  S
C41         C554   1.437       .  S
C42         C654   1.437       .  S
O43          V51   1.908       .  S
O43          C53   1.264       .  A
O44          V51   1.907       .  S
O44          C54   1.265       .  A
O45          V51   1.901       .  S
O45          C55   1.263       .  A
O46          V51   1.900       .  S
O46          C56   1.263       .  A
O47          V52   1.910       .  S
O47          C56   1.265       .  A
O48          V52   1.910       .  S
O48          C55   1.265       .  A
O49          V52   1.894       .  S
O49          C54   1.261       .  A
O50          V52   1.893       .  S
O50          C53   1.261       .  A
V51          V52   2.090       .  T
C53         C512   1.435       .  S
C54         C568   1.435       .  S
C55         C526   1.443       .  S
C56         C612   1.442       .  S
O57          V65   1.912       .  S
O57          C67   1.266       .  A
O58          V65   1.910       .  S
O58          C68   1.266       .  A
O59          V65   1.901       .  S
O59          C69   1.262       .  A
O60          V65   1.899       .  S
O60          C70   1.262       .  A
O61          V66   1.911       .  S
O61          C70   1.266       .  A
O62          V66   1.911       .  S
O62          C69   1.266       .  A
O63          V66   1.894       .  S
O63          C68   1.261       .  A
O64          V66   1.895       .  S
O64          C67   1.261       .  A
V65          V66   2.090       .  T
C67         C470   1.440       .  S
C68         C498   1.438       .  S
C69         C528   1.443       .  S
C70         C486   1.442       .  S
O71          V79   1.910       .  S
O71          C81   1.265       .  A
O72          V79   1.909       .  S
O72          C82   1.265       .  A
O73          V79   1.897       .  S
O73          C83   1.262       .  A
O74          V79   1.896       .  S
O74          C84   1.262       .  A
O75          V80   1.907       .  S
O75          C84   1.265       .  A
O76          V80   1.907       .  S
O76          C83   1.265       .  A
O77          V80   1.896       .  S
O77          C82   1.261       .  A
O78          V80   1.896       .  S
O78          C81   1.262       .  A
V79          V80   2.090       .  T
C81         C442   1.439       .  S
C82         C500   1.438       .  S
C83         C556   1.437       .  S
C84         C456   1.437       .  S
O85          V93   1.911       .  S
O85          C95   1.266       .  A
O86          V93   1.909       .  S
O86          C96   1.265       .  A
O87          V93   1.899       .  S
O87          C97   1.262       .  A
O88          V93   1.900       .  S
O88          C98   1.262       .  A
O89          V94   1.912       .  S
O89          C98   1.266       .  A
O90          V94   1.911       .  S
O90          C97   1.266       .  A
O91          V94   1.892       .  S
O91          C96   1.260       .  A
O92          V94   1.894       .  S
O92          C95   1.261       .  A
V93          V94   2.090       .  T
C95         C414   1.438       .  S
C96         C430   1.435       .  S
C97         C484   1.442       .  S
C98         C598   1.443       .  S
O99         V107   1.909       .  S
O99         C109   1.265       .  A
O100        V107   1.908       .  S
O100        C110   1.265       .  A
O101        V107   1.899       .  S
O101        C111   1.262       .  A
O102        V107   1.899       .  S
O102        C112   1.262       .  A
O103        V108   1.904       .  S
O103        C112   1.264       .  A
O104        V108   1.905       .  S
O104        C111   1.264       .  A
O105        V108   1.893       .  S
O105        C110   1.261       .  A
O106        V108   1.895       .  S
O106        C109   1.261       .  A
V107        V108   2.090       .  T
C109        C402   1.438       .  S
C110        C428   1.435       .  S
C111        C458   1.437       .  S
C112        C640   1.437       .  S
O113        V121   1.911       .  S
O113        C123   1.265       .  A
O114        V121   1.910       .  S
O114        C124   1.265       .  A
O115        V121   1.900       .  S
O115        C125   1.262       .  A
O116        V121   1.899       .  S
O116        C126   1.262       .  A
O117        V122   1.908       .  S
O117        C126   1.265       .  A
O118        V122   1.907       .  S
O118        C125   1.265       .  A
O119        V122   1.895       .  S
O119        C124   1.261       .  A
O120        V122   1.895       .  S
O120        C123   1.261       .  A
V121        V122   2.090       .  T
C123        C626   1.440       .  S
C124        C386   1.438       .  S
C125        C358   1.440       .  S
C126        C372   1.440       .  S
O127        V135   1.912       .  S
O127        C137   1.266       .  A
O128        V135   1.911       .  S
O128        C138   1.266       .  A
O129        V135   1.901       .  S
O129        C139   1.262       .  A
O130        V135   1.899       .  S
O130        C140   1.262       .  A
O131        V136   1.912       .  S
O131        C140   1.266       .  A
O132        V136   1.912       .  S
O132        C139   1.266       .  A
O133        V136   1.893       .  S
O133        C138   1.261       .  A
O134        V136   1.894       .  S
O134        C137   1.261       .  A
V135        V136   2.089       .  T
C137        C584   1.439       .  S
C138        C388   1.438       .  S
C139        C330   1.444       .  S
C140        C346   1.443       .  S
O141        V149   1.907       .  S
O141        C151   1.264       .  A
O142        V149   1.907       .  S
O142        C152   1.264       .  A
O143        V149   1.900       .  S
O143        C153   1.262       .  A
O144        V149   1.899       .  S
O144        C154   1.262       .  A
O145        V150   1.907       .  S
O145        C154   1.265       .  A
O146        V150   1.908       .  S
O146        C153   1.265       .  A
O147        V150   1.892       .  S
O147        C152   1.261       .  A
O148        V150   1.893       .  S
O148        C151   1.261       .  A
V149        V150   2.090       .  T
C151        C542   1.435       .  S
C152        C316   1.434       .  S
C153        C374   1.440       .  S
C154        C302   1.439       .  S
O155        V163   1.908       .  S
O155        C165   1.265       .  A
O156        V163   1.907       .  S
O156        C166   1.265       .  A
O157        V163   1.901       .  S
O157        C167   1.263       .  A
O158        V163   1.900       .  S
O158        C168   1.262       .  A
O159        V164   1.910       .  S
O159        C168   1.265       .  A
O160        V164   1.911       .  S
O160        C167   1.266       .  A
O161        V164   1.892       .  S
O161        C166   1.260       .  A
O162        V164   1.893       .  S
O162        C165   1.261       .  A
V163        V164   2.090       .  T
C165        C514   1.435       .  S
C166        C318   1.434       .  S
C167        C344   1.443       .  S
C168        C288   1.442       .  S
O169        V177   1.912       .  S
O169        C179   1.266       .  A
O170        V177   1.912       .  S
O170        C180   1.266       .  A
O171        V177   1.900       .  S
O171        C181   1.262       .  A
O172        V177   1.900       .  S
O172        C182   1.262       .  A
O173        V178   1.910       .  S
O173        C182   1.265       .  A
O174        V178   1.910       .  S
O174        C181   1.265       .  A
O175        V178   1.896       .  S
O175        C180   1.261       .  A
O176        V178   1.894       .  S
O176        C179   1.261       .  A
V177        V178   2.090       .  T
C179        C444   1.439       .  S
C180        C274   1.440       .  S
C181        C260   1.442       .  S
C182        C290   1.442       .  S
O183        V191   1.911       .  S
O183        C193   1.265       .  A
O184        V191   1.911       .  S
O184        C194   1.266       .  A
O185        V191   1.896       .  S
O185        C195   1.261       .  A
O186        V191   1.898       .  S
O186        C196   1.262       .  A
O187        V192   1.909       .  S
O187        C196   1.265       .  A
O188        V192   1.908       .  S
O188        C195   1.265       .  A
O189        V192   1.897       .  S
O189        C194   1.262       .  A
O190        V192   1.897       .  S
O190        C193   1.262       .  A
V191        V192   2.090       .  T
C193        C472   1.441       .  S
C194        C276   1.440       .  S
C195        C246   1.438       .  S
C196        C304   1.439       .  S
O197        V205   1.910       .  S
O197        C207   1.265       .  A
O198        V205   1.910       .  S
O198        C208   1.265       .  A
O199        V205   1.901       .  S
O199        C209   1.263       .  A
O200        V205   1.899       .  S
O200        C210   1.262       .  A
O201        V206   1.911       .  S
O201        C210   1.265       .  A
O202        V206   1.911       .  S
O202        C209   1.266       .  A
O203        V206   1.895       .  S
O203        C208   1.261       .  A
O204        V206   1.894       .  S
O204        C207   1.261       .  A
V205        V206   2.090       .  T
C207        C400   1.438       .  S
C208        C232   1.438       .  S
C209        C332   1.444       .  S
C210        C262   1.442       .  S
O211        V219   1.910       .  S
O211        C221   1.265       .  A
O212        V219   1.910       .  S
O212        C222   1.265       .  A
O213        V219   1.900       .  S
O213        C223   1.262       .  A
O214        V219   1.898       .  S
O214        C224   1.262       .  A
O215        V220   1.907       .  S
O215        C224   1.264       .  A
O216        V220   1.908       .  S
O216        C223   1.265       .  A
O217        V220   1.896       .  S
O217        C222   1.261       .  A
O218        V220   1.895       .  S
O218        C221   1.261       .  A
V219        V220   2.090       .  T
C221        C416   1.439       .  S
C222        C234   1.439       .  S
C223        C360   1.440       .  S
C224        C248   1.438       .  S
C225        C233   1.444   1_655  S
C225        C226   1.402       .  A
C225        C230   1.402       .  A
C226        C227   1.399       .  A
C226        H235   1.083       .  S
C227        C228   1.401       .  A
C227        H236   1.084       .  S
C228        C231   1.444       .  S
C228        C229   1.403       .  A
C229        C230   1.402       .  A
C229        H237   1.083       .  S
C230        H238   1.084       .  S
C231        C232   1.208       .  T
C233        C234   1.208       .  T
C239        C247   1.443       .  S
C239        C240   1.402       .  A
C239        C244   1.401       .  A
C240        C241   1.402       .  A
C240        H249   1.083       .  S
C241        C242   1.402       .  A
C241        H250   1.083       .  S
C242        C245   1.443       .  S
C242        C243   1.402       .  A
C243        C244   1.399       .  A
C243        H251   1.084       .  S
C244        H252   1.084       .  S
C245        C246   1.208       .  T
C247        C248   1.208       .  T
C253        C261   1.447       .  S
C253        C254   1.402       .  A
C253        C258   1.403       .  A
C254        C255   1.401       .  A
C254        H263   1.083       .  S
C255        C256   1.402       .  A
C255        H264   1.083       .  S
C256        C259   1.447       .  S
C256        C257   1.403       .  A
C257        C258   1.402       .  A
C257        H265   1.083       .  S
C258        H266   1.083       .  S
C259        C260   1.210       .  T
C261        C262   1.210       .  T
C267        C275   1.445   1_655  S
C267        C268   1.402       .  A
C267        C272   1.403       .  A
C268        C269   1.402       .  A
C268        H277   1.084       .  S
C269        C270   1.403       .  A
C269        H278   1.083       .  S
C270        C273   1.445       .  S
C270        C271   1.401       .  A
C271        C272   1.401       .  A
C271        H279   1.084       .  S
C272        H280   1.083       .  S
C273        C274   1.209       .  T
C275        C276   1.209       .  T
C281        C289   1.447       .  S
C281        C282   1.402       .  A
C281        C286   1.403       .  A
C282        C283   1.402       .  A
C282        H291   1.083       .  S
C283        C284   1.403       .  A
C283        H292   1.083       .  S
C284        C287   1.447       .  S
C284        C285   1.403       .  A
C285        C286   1.402       .  A
C285        H293   1.083       .  S
C286        H294   1.083       .  S
C287        C288   1.210       .  T
C289        C290   1.210       .  T
C295        C303   1.444       .  S
C295        C296   1.402       .  A
C295        C300   1.402       .  A
C296        C297   1.400       .  A
C296        H305   1.083       .  S
C297        C298   1.402       .  A
C297        H306   1.084       .  S
C298        C301   1.444       .  S
C298        C299   1.402       .  A
C299        C300   1.401       .  A
C299        H307   1.083       .  S
C300        H308   1.083       .  S
C301        C302   1.208       .  T
C303        C304   1.209       .  T
C309        C317   1.439       .  S
C309        C310   1.400       .  A
C309        C314   1.402       .  A
C310        C311   1.398       .  A
C310        H319   1.083       .  S
C311        C312   1.402       .  A
C311        H320   1.084       .  S
C312        C315   1.439   1_655  S
C312        C313   1.400       .  A
C313        C314   1.399       .  A
C313        H321   1.083       .  S
C314        H322   1.084       .  S
C315        C316   1.205       .  T
C317        C318   1.205       .  T
C323        C331   1.448       .  S
C323        C324   1.403       .  A
C323        C328   1.402       .  A
C324        C325   1.402       .  A
C324        H333   1.084       .  S
C325        C326   1.402       .  A
C325        H334   1.083       .  S
C326        C329   1.449       .  S
C326        C327   1.403       .  A
C327        C328   1.403       .  A
C327        H335   1.084       .  S
C328        H336   1.083       .  S
C329        C330   1.211       .  T
C331        C332   1.211       .  T
C337        C345   1.448       .  S
C337        C338   1.402       .  A
C337        C342   1.403       .  A
C338        C339   1.401   1_554  A
C338        H347   1.083       .  S
C339        C340   1.402       .  A
C339        H348   1.083       .  S
C340        C343   1.448       .  S
C340        C341   1.403       .  A
C341        C342   1.403   1_556  A
C341        H349   1.083       .  S
C342        H350   1.083       .  S
C343        C344   1.211       .  T
C345        C346   1.211       .  T
C351        C359   1.445       .  S
C351        C352   1.403       .  A
C351        C356   1.402       .  A
C352        C353   1.401       .  A
C352        H361   1.084       .  S
C353        C354   1.402       .  A
C353        H362   1.083       .  S
C354        C357   1.445       .  S
C354        C355   1.402       .  A
C355        C356   1.401       .  A
C355        H363   1.084       .  S
C356        H364   1.083       .  S
C357        C358   1.209       .  T
C359        C360   1.209       .  T
C365        C373   1.445       .  S
C365        C366   1.402       .  A
C365        C370   1.402       .  A
C366        C367   1.401   1_556  A
C366        H375   1.083       .  S
C367        C368   1.402       .  A
C367        H376   1.083       .  S
C368        C371   1.445       .  S
C368        C369   1.402       .  A
C369        C370   1.401   1_554  A
C369        H377   1.083       .  S
C370        H378   1.083       .  S
C371        C372   1.209       .  T
C373        C374   1.209       .  T
C379        C387   1.443       .  S
C379        C380   1.402       .  A
C379        C384   1.402       .  A
C380        C381   1.400       .  A
C380        H389   1.084       .  S
C381        C382   1.401       .  A
C381        H390   1.083       .  S
C382        C385   1.443   1_655  S
C382        C383   1.403       .  A
C383        C384   1.401       .  A
C383        H391   1.084       .  S
C384        H392   1.083       .  S
C385        C386   1.208       .  T
C387        C388   1.208       .  T
C393        C401   1.443       .  S
C393        C394   1.402       .  A
C393        C398   1.402       .  A
C394        C395   1.400       .  A
C394        H403   1.084       .  S
C395        C396   1.402       .  A
C395        H404   1.083       .  S
C396        C399   1.443       .  S
C396        C397   1.402       .  A
C397        C398   1.401       .  A
C397        H405   1.083       .  S
C398        H406   1.083       .  S
C399        C400   1.208       .  T
C401        C402   1.208       .  T
C407        C415   1.444       .  S
C407        C408   1.402       .  A
C407        C412   1.402       .  A
C408        C409   1.400       .  A
C408        H417   1.084       .  S
C409        C410   1.402       .  A
C409        H418   1.083       .  S
C410        C413   1.444       .  S
C410        C411   1.402       .  A
C411        C412   1.401       .  A
C411        H419   1.083       .  S
C412        H420   1.083       .  S
C413        C414   1.208       .  T
C415        C416   1.208       .  T
C421        C429   1.441       .  S
C421        C422   1.401       .  A
C421        C426   1.402       .  A
C422        C423   1.399       .  A
C422        H431   1.083       .  S
C423        C424   1.402       .  A
C423        H432   1.084       .  S
C424        C427   1.441   1_565  S
C424        C425   1.401       .  A
C425        C426   1.399       .  A
C425        H433   1.083   1_565  S
C426        H434   1.084       .  S
C427        C428   1.206       .  T
C429        C430   1.206       .  T
C435        C443   1.444       .  S
C435        C436   1.402       .  A
C435        C440   1.402       .  A
C436        C437   1.401       .  A
C436        H445   1.083       .  S
C437        C438   1.402       .  A
C437        H446   1.083       .  S
C438        C441   1.444       .  S
C438        C439   1.402       .  A
C439        C440   1.400       .  A
C439        H447   1.084       .  S
C440        H448   1.083       .  S
C441        C442   1.209       .  T
C443        C444   1.208       .  T
C449        C457   1.442       .  S
C449        C450   1.402       .  A
C449        C454   1.402       .  A
C450        C451   1.400       .  A
C450        H459   1.083       .  S
C451        C452   1.402       .  A
C451        H460   1.083       .  S
C452        C455   1.442       .  S
C452        C453   1.402       .  A
C453        C454   1.400       .  A
C453        H461   1.083       .  S
C454        H462   1.083       .  S
C455        C456   1.207       .  T
C457        C458   1.207       .  T
C463        C471   1.445       .  S
C463        C464   1.403       .  A
C463        C468   1.402       .  A
C464        C465   1.403       .  A
C464        H473   1.083       .  S
C465        C466   1.403       .  A
C465        H474   1.083       .  S
C466        C469   1.445       .  S
C466        C467   1.402       .  A
C467        C468   1.400       .  A
C467        H475   1.083       .  S
C468        H476   1.084       .  S
C469        C470   1.209       .  T
C471        C472   1.209       .  T
C477        C485   1.447       .  S
C477        C478   1.403       .  A
C477        C482   1.403       .  A
C478        C479   1.402       .  A
C478        H487   1.083       .  S
C479        C480   1.403       .  A
C479        H488   1.083       .  S
C480        C483   1.447       .  S
C480        C481   1.402       .  A
C481        C482   1.401       .  A
C481        H489   1.083       .  S
C482        H490   1.083       .  S
C483        C484   1.210       .  T
C485        C486   1.210       .  T
C491        C499   1.443   1_565  S
C491        C492   1.401       .  A
C491        C496   1.403       .  A
C492        C493   1.401       .  A
C492        H501   1.083   1_565  S
C493        C494   1.403       .  A
C493        H502   1.084       .  S
C494        C497   1.443       .  S
C494        C495   1.401       .  A
C495        C496   1.400       .  A
C495        H503   1.083       .  S
C496        H504   1.084       .  S
C497        C498   1.208       .  T
C499        C500   1.208       .  T
C505        C513   1.440       .  S
C505        C506   1.401       .  A
C505        C510   1.402       .  A
C506        C507   1.398       .  A
C506        H515   1.084       .  S
C507        C508   1.401       .  A
C507        H516   1.084       .  S
C508        C511   1.440       .  S
C508        C509   1.402       .  A
C509        C510   1.401       .  A
C509        H517   1.083       .  S
C510        H518   1.083       .  S
C511        C512   1.206       .  T
C513        C514   1.206       .  T
C519        C527   1.448       .  S
C519        C520   1.403       .  A
C519        C524   1.402       .  A
C520        C521   1.402       .  A
C520        H529   1.083       .  S
C521        C522   1.403       .  A
C521        H530   1.084       .  S
C522        C525   1.448       .  S
C522        C523   1.403       .  A
C523        C524   1.402       .  A
C523        H531   1.083       .  S
C524        H532   1.084       .  S
C525        C526   1.211       .  T
C527        C528   1.211       .  T
C533        C541   1.440       .  S
C533        C534   1.402       .  A
C533        C538   1.401       .  A
C534        C535   1.401       .  A
C534        H543   1.083       .  S
C535        C536   1.402       .  A
C535        H544   1.083       .  S
C536        C539   1.440       .  S
C536        C537   1.401       .  A
C537        C538   1.397       .  A
C537        H545   1.083       .  S
C538        H546   1.084       .  S
C539        C540   1.206       .  T
C541        C542   1.206       .  T
C547        C555   1.442       .  S
C547        C548   1.401       .  A
C547        C552   1.402       .  A
C548        C549   1.400       .  A
C548        H557   1.083       .  S
C549        C550   1.402       .  A
C549        H558   1.084       .  S
C550        C553   1.442       .  S
C550        C551   1.401       .  A
C551        C552   1.400       .  A
C551        H559   1.083       .  S
C552        H560   1.084       .  S
C553        C554   1.207       .  T
C555        C556   1.207       .  T
C561        C569   1.440   1_565  S
C561        C562   1.402       .  A
C561        C566   1.401       .  A
C562        C563   1.399       .  A
C562        H571   1.083       .  S
C563        C564   1.401       .  A
C563        H572   1.084       .  S
C564        C567   1.440       .  S
C564        C565   1.402       .  A
C565        C566   1.399       .  A
C565        H573   1.083       .  S
C566        H574   1.084       .  S
C567        C568   1.206       .  T
C569        C570   1.206       .  T
C575        C583   1.444       .  S
C575        C576   1.403       .  A
C575        C580   1.401       .  A
C576        C577   1.403       .  A
C576        H585   1.083       .  S
C577        C578   1.403       .  A
C577        H586   1.083       .  S
C578        C581   1.444       .  S
C578        C579   1.401       .  A
C579        C580   1.399       .  A
C579        H587   1.083       .  S
C580        H588   1.084       .  S
C581        C582   1.209       .  T
C583        C584   1.209       .  T
C589        C597   1.448       .  S
C589        C590   1.403       .  A
C589        C594   1.402       .  A
C590        C591   1.403       .  A
C590        H599   1.084       .  S
C591        C592   1.403       .  A
C591        H600   1.083       .  S
C592        C595   1.448       .  S
C592        C593   1.402       .  A
C593        C594   1.402       .  A
C593        H601   1.084       .  S
C594        H602   1.083       .  S
C595        C596   1.211       .  T
C597        C598   1.211       .  T
C603        C611   1.447       .  S
C603        C604   1.403       .  A
C603        C608   1.402       .  A
C604        C605   1.404   1_556  A
C604        H613   1.083       .  S
C605        C606   1.403       .  A
C605        H614   1.083       .  S
C606        C609   1.447       .  S
C606        C607   1.402       .  A
C607        C608   1.400   1_554  A
C607        H615   1.083       .  S
C608        H616   1.083       .  S
C609        C610   1.210       .  T
C611        C612   1.210       .  T
C617        C625   1.444       .  S
C617        C618   1.401       .  A
C617        C622   1.403       .  A
C618        C619   1.398       .  A
C618        H627   1.084       .  S
C619        C620   1.401       .  A
C619        H628   1.084       .  S
C620        C623   1.444       .  S
C620        C621   1.403       .  A
C621        C622   1.403       .  A
C621        H629   1.083       .  S
C622        H630   1.083       .  S
C623        C624   1.209       .  T
C625        C626   1.209       .  T
C631        C639   1.442       .  S
C631        C632   1.401       .  A
C631        C636   1.402       .  A
C632        C633   1.400       .  A
C632        H641   1.084       .  S
C633        C634   1.402       .  A
C633        H642   1.083       .  S
C634        C637   1.442       .  S
C634        C635   1.402       .  A
C635        C636   1.400       .  A
C635        H643   1.084       .  S
C636        H644   1.083       .  S
C637        C638   1.207       .  T
C639        C640   1.207       .  T
C645        C653   1.442       .  S
C645        C646   1.402       .  A
C645        C650   1.402       .  A
C646        C647   1.400   1_556  A
C646        H655   1.083       .  S
C647        C648   1.402       .  A
C647        H656   1.083       .  S
C648        C651   1.442       .  S
C648        C649   1.402       .  A
C649        C650   1.400   1_554  A
C649        H657   1.083       .  S
C650        H658   1.083       .  S
C651        C652   1.207       .  T
C653        C654   1.207       .  T
C659        C667   1.443       .  S
C659        C660   1.403       .  A
C659        C664   1.401       .  A
C660        C661   1.401       .  A
C660        H669   1.084       .  S
C661        C662   1.401       .  A
C661        H670   1.083       .  S
C662        C665   1.443   1_565  S
C662        C663   1.402       .  A
C663        C664   1.400       .  A
C663        H671   1.084       .  S
C664        H672   1.083       .  S
C665        C666   1.208       .  T
C667        C668   1.208       .  T
