geometry optimzed in LAMMPS
_audit_creation_date              2020-12-01 
_audit_creation_method            'lammps2cif' 
_symmetry_space_group_name_H-M    'P1' 
_symmetry_Int_Tables_number       1 
_symmetry_cell_setting            triclinic 
loop_ 
_symmetry_equiv_pos_as_xyz 
  x,y,z 
_cell_length_a                    44.770051 
_cell_length_b                    44.75801045065451 
_cell_length_c                    73.61736669765233 
_cell_angle_alpha                 90.01166325138497 
_cell_angle_beta                  89.88482863219537 
_cell_angle_gamma                 89.99242995145231 
loop_ 
_atom_site_label 
_atom_site_type_symbol 
_atom_site_fract_x 
_atom_site_fract_y 
_atom_site_fract_z 
_atom_site_charge 
O1          O  0.12889107  0.85315860  0.51590200    -0.72400
O2          O  0.05009087  0.84581496  0.54285751    -0.73400
O3          O  0.07060405  0.87929949  0.51285349    -0.62000
O4          O  0.10727955  0.81883467  0.54615712    -0.70400
O5          O  0.12129536  0.85491231  0.56498839    -0.69900
O6          O  0.08525166  0.91578689  0.53121630    -0.61200
O7          O  0.06455337  0.88248335  0.56111116    -0.73700
O8          O  0.14262717  0.88879756  0.53511158    -0.72500
Cu9        Cu  0.08888073  0.84797302  0.52873115     1.04600
Cu10       Cu  0.10401383  0.88672796  0.54870294     1.04300
C11         C  0.14823032  0.87217228  0.52145477     0.93800
C12         C  0.04489240  0.86352050  0.55613162     0.93000
C13         C  0.07116832  0.90695672  0.51711836     0.85100
C14         C  0.11938211  0.82718110  0.56102725     0.91400
O15         O  0.83894049  0.79178241  0.69869957    -0.72400
O16         O  0.89823796  0.83667145  0.66895542    -0.73400
O17         O  0.86970224  0.84703399  0.70273647    -0.62000
O18         O  0.86689545  0.78199119  0.66479662    -0.70400
O19         O  0.83010995  0.80604964  0.65085479    -0.69900
O20         O  0.83266996  0.87029727  0.68858550    -0.61200
O21         O  0.86168282  0.86005421  0.65435938    -0.73700
O22         O  0.80155889  0.81501625  0.68489025    -0.72500
Cu23       Cu  0.86970923  0.81361691  0.68432557     1.04600
Cu24       Cu  0.83018840  0.83879344  0.66924814     1.04300
C25         C  0.81097706  0.79573267  0.69635161     0.93800
C26         C  0.88949385  0.85464952  0.65663854     0.93000
C27         C  0.85152509  0.86897112  0.70157026     0.85100
C28         C  0.84801604  0.78396189  0.65181372     0.91400
O29         O  0.10349704  0.58332034  0.66378006    -0.72400
O30         O  0.15896272  0.63208853  0.69464736    -0.73400
O31         O  0.12321289  0.64307801  0.66344500    -0.62000
O32         O  0.13875409  0.57139536  0.69497697    -0.70400
O33         O  0.17655691  0.55850420  0.67706428    -0.69900
O34         O  0.16174461  0.63079246  0.64593630    -0.61200
O35         O  0.19685984  0.61857531  0.67695740    -0.73700
O36         O  0.14143392  0.57098784  0.64580314    -0.72500
Cu37       Cu  0.12983336  0.60787350  0.67991476     1.04600
Cu38       Cu  0.17050650  0.59419926  0.66088786     1.04300
C39         C  0.11362090  0.57028397  0.64959479     0.93800
C40         C  0.18666312  0.63332611  0.69043958     0.93000
C41         C  0.13981319  0.64806253  0.64964473     0.85100
C42         C  0.15986194  0.55338692  0.69080555     0.91400
O43         O  0.85873619  0.57537515  0.52409617    -0.72400
O44         O  0.92573308  0.56090528  0.55930086    -0.73400
O45         O  0.90932730  0.53745208  0.52540436    -0.62000
O46         O  0.87588953  0.59951667  0.55831229    -0.70400
O47         O  0.84904335  0.56528044  0.57278568    -0.69900
O48         O  0.88243018  0.50230349  0.53900202    -0.61200
O49         O  0.89862779  0.52612536  0.57314105    -0.73700
O50         O  0.83164296  0.54111268  0.53838260    -0.72500
Cu51       Cu  0.89321421  0.56953700  0.54125878     1.04600
Cu52       Cu  0.86431223  0.53251304  0.55626097     1.04300
C53         C  0.83462782  0.56032009  0.52566269     0.93800
C54         C  0.92275048  0.54108733  0.57169153     0.93000
C55         C  0.90209923  0.51005014  0.52729403     0.85100
C56         C  0.85804794  0.59226022  0.57112135     0.91400
O57         O  0.65461820  0.58362934  0.78224108    -0.72400
O58         O  0.65562888  0.65814260  0.81309239    -0.73400
O59         O  0.68399322  0.64011909  0.78044285    -0.62000
O60         O  0.62606296  0.60267387  0.81466629    -0.70400
O61         O  0.66304463  0.58405705  0.83117865    -0.69900
O62         O  0.72188115  0.62158996  0.79623431    -0.61200
O63         O  0.69334662  0.63930262  0.82893062    -0.73700
O64         O  0.69222955  0.56538656  0.79841091    -0.72500
Cu65       Cu  0.65382159  0.62169264  0.79699257     1.04600
Cu66       Cu  0.69398066  0.60183083  0.81419297     1.04300
C67         C  0.67330240  0.56270655  0.78557749     0.93800
C68         C  0.67446785  0.66011347  0.82608672     0.93000
C69         C  0.71203631  0.63743454  0.78308759     0.85100
C70         C  0.63511977  0.58828219  0.82857446     0.91400
O71         O  0.37756727  0.60460041  0.91565741    -0.72400
O72         O  0.41842152  0.54255628  0.94529016    -0.73400
O73         O  0.43394811  0.57525143  0.91394871    -0.62000
O74         O  0.36145011  0.57133207  0.94678171    -0.70400
O75         O  0.34236697  0.53617076  0.92898391    -0.69900
O76         O  0.41393997  0.53994946  0.89661909    -0.61200
O77         O  0.39927198  0.50669343  0.92807107    -0.73700
O78         O  0.35820930  0.56976247  0.89770928    -0.72500
Cu79       Cu  0.39846734  0.57462651  0.93107191     1.04600
Cu80       Cu  0.37770312  0.53684435  0.91229741     1.04300
C81         C  0.36178134  0.59724911  0.90197705     0.93800
C82         C  0.41619044  0.51496973  0.94112459     0.93000
C83         C  0.43520235  0.55799735  0.90009325     0.85100
C84         C  0.34017634  0.55345005  0.94270710     0.91400
O85         O  0.35840832  0.76530762  0.79552672    -0.72400
O86         O  0.35433408  0.84344403  0.76874542    -0.73400
O87         O  0.38886163  0.82087217  0.79808622    -0.62000
O88         O  0.32428936  0.78758262  0.76649289    -0.70400
O89         O  0.28976755  0.80493680  0.78542957    -0.69900
O90         O  0.35487062  0.83569122  0.81815371    -0.61200
O91         O  0.32135289  0.86022144  0.78885959    -0.73700
O92         O  0.32313035  0.78110006  0.81446145    -0.72500
Cu93       Cu  0.35768415  0.80385423  0.78151692     1.04600
Cu94       Cu  0.32109590  0.82118699  0.80238650     1.04300
C95         C  0.34091951  0.76066387  0.80896027     0.93800
C96         C  0.33728956  0.86421966  0.77465952     0.93000
C97         C  0.38216544  0.83289924  0.81328403     0.85100
C98         C  0.29692654  0.79023627  0.77119454     0.91400
O99         O  0.56135996  0.87839050  0.95960851    -0.72400
O100        O  0.60456083  0.82860101  0.92271987    -0.73400
O101        O  0.62211179  0.86012662  0.95462776    -0.62000
O102        O  0.54467560  0.84712291  0.92789909    -0.70400
O103        O  0.55342342  0.88789336  0.91158009    -0.69900
O104        O  0.63127100  0.89985605  0.93745863    -0.61200
O105        O  0.61273322  0.86883875  0.90579955    -0.73700
O106        O  0.57115837  0.91893600  0.94326969    -0.72500
Cu107      Cu  0.58299777  0.85217763  0.94186787     1.04600
Cu108      Cu  0.59254108  0.89534745  0.92403850     1.04300
C109        C  0.55865440  0.90644663  0.95690253     0.93800
C110        C  0.61460645  0.84066226  0.90819618     0.93000
C111        C  0.63913772  0.88179299  0.94998472     0.85100
C112        C  0.53696735  0.86542982  0.91544379     0.91400
O113        O  0.63739733  0.35726312  0.02097133    -0.72400
O114        O  0.56128123  0.36126927  0.05107095    -0.73400
O115        O  0.58079519  0.38728384  0.01811433    -0.62000
O116        O  0.61691563  0.33088223  0.05377826    -0.70400
O117        O  0.63513530  0.36874662  0.06976786    -0.69900
O118        O  0.59964984  0.42571843  0.03330576    -0.61200
O119        O  0.58043918  0.39955646  0.06627169    -0.73700
O120        O  0.65558098  0.39500980  0.03707330    -0.72500
Cu121      Cu  0.59853080  0.35785922  0.03535846     1.04600
Cu122      Cu  0.61841611  0.39863299  0.05203834     1.04300
C123        C  0.65881244  0.37517267  0.02478215     0.93800
C124        C  0.55917117  0.38116988  0.06351786     0.93000
C125        C  0.58351705  0.41541647  0.02042808     0.85100
C126        C  0.63119312  0.34071838  0.06754017     0.91400
O127        O  0.36765874  0.34355828  0.14934682    -0.72400
O128        O  0.31016549  0.30602347  0.18362299    -0.73400
O129        O  0.33665779  0.28832874  0.15072034    -0.62000
O130        O  0.33988670  0.36226290  0.18233759    -0.70400
O131        O  0.30183914  0.38093268  0.16673769    -0.69900
O132        O  0.29957907  0.30879429  0.13505356    -0.61200
O133        O  0.27198164  0.32472416  0.16817547    -0.73700
O134        O  0.33071912  0.36359901  0.13343482    -0.72500
Cu135      Cu  0.33994965  0.32453421  0.16706746     1.04600
Cu136      Cu  0.29974384  0.34538601  0.15035217     1.04300
C137        C  0.35862530  0.35863837  0.13571085     0.93800
C138        C  0.28210619  0.30832065  0.18100651     0.93000
C139        C  0.31722802  0.28702030  0.13800108     0.85100
C140        C  0.32078502  0.38306877  0.17958326     0.91400
O141        O  0.60032030  0.09758572  0.16026888    -0.72400
O142        O  0.66464026  0.13392505  0.19063332    -0.73400
O143        O  0.63705402  0.14896493  0.15759347    -0.62000
O144        O  0.62792828  0.08189453  0.19350624    -0.70400
O145        O  0.66198470  0.05584709  0.17832285    -0.69900
O146        O  0.67103035  0.12255345  0.14254447    -0.61200
O147        O  0.69884467  0.10760673  0.17572888    -0.73700
O148        O  0.63419625  0.07139733  0.14500602    -0.72500
Cu149      Cu  0.63129820  0.11642820  0.17608426     1.04600
Cu150      Cu  0.66770684  0.08834433  0.15993755     1.04300
C151        C  0.60708857  0.07916608  0.14765438     0.93800
C152        C  0.69194786  0.12729329  0.18757989     0.93000
C153        C  0.65557287  0.14630318  0.14444334     0.85100
C154        C  0.64337635  0.05813296  0.19143779     0.91400
O155        O  0.37176579  0.98694585  0.05071659    -0.82000
O156        O  0.33105662  0.05003989  0.08128809    -0.73400
O157        O  0.31522243  0.01720992  0.04959024    -0.62000
O158        O  0.38636951  0.01968760  0.08242209    -0.70400
O159        O  0.40679175  0.05489420  0.06515374    -0.69900
O160        O  0.33533425  0.05248991  0.03226525    -0.61200
O161        O  0.35131949  0.08480900  0.06365768    -0.73700
O162        O  0.39135741  0.02287790  0.03369621    -0.72500
Cu163      Cu  0.35028655  0.01714164  0.06654165     1.04600
Cu164      Cu  0.37180810  0.05493390  0.04805307     1.04300
C165        C  0.38880679  0.99525748  0.03769956     0.93800
C166        C  0.33540395  0.07751701  0.07736061     0.93000
C167        C  0.31378752  0.03473050  0.03593824     0.85100
C168        C  0.40771376  0.03772429  0.07902765     0.91400
O169        O  0.87530534  0.32850304  0.30539402    -0.72400
O170        O  0.81083022  0.30361243  0.27065530    -0.73400
O171        O  0.83833097  0.27773795  0.30141449    -0.62000
O172        O  0.84771322  0.35533491  0.27443925    -0.70400
O173        O  0.88165730  0.33449754  0.25646397    -0.69900
O174        O  0.87276192  0.25696013  0.28373223    -0.61200
O175        O  0.84513436  0.28228197  0.25310735    -0.73700
O176        O  0.90935022  0.30795983  0.28731601    -0.72500
Cu177      Cu  0.84186192  0.31720913  0.28853874     1.04600
Cu178      Cu  0.87840966  0.29488756  0.26946601     1.04300
C179        C  0.90239071  0.32119851  0.30207470     0.93800
C180        C  0.81780317  0.28767870  0.25689129     0.93000
C181        C  0.85416913  0.25515633  0.29687402     0.85100
C182        C  0.86613851  0.35719279  0.26119017     0.91400
O183        O  0.06694769  0.38357739  0.40433286    -0.72400
O184        O  0.13997422  0.38478904  0.43500258    -0.73400
O185        O  0.12308662  0.35430176  0.40287341    -0.62000
O186        O  0.08306473  0.41315084  0.43654597    -0.70400
O187        O  0.06369593  0.37528548  0.45207727    -0.69900
O188        O  0.10688614  0.31729330  0.42040407    -0.61200
O189        O  0.12184498  0.34860185  0.45246486    -0.73700
O190        O  0.04974027  0.34435325  0.41959531    -0.72500
Cu191      Cu  0.10396279  0.38529515  0.41917720     1.04600
Cu192      Cu  0.08493167  0.34510384  0.43678169     1.04300
C193        C  0.04708973  0.36362392  0.40684913     0.93800
C194        C  0.14273933  0.36695241  0.44838626     0.93000
C195        C  0.12117957  0.32638724  0.40647445     0.85100
C196        C  0.06605308  0.40330223  0.44915964     0.91400
O197        O  0.14789733  0.09501950  0.31785287    -0.72400
O198        O  0.20206040  0.13292781  0.28072801    -0.73400
O199        O  0.17185610  0.15288156  0.31220999    -0.62000
O200        O  0.17853643  0.07442120  0.28602922    -0.70400
O201        O  0.13901664  0.08611044  0.26932514    -0.69900
O202        O  0.13234380  0.16479736  0.29555052    -0.61200
O203        O  0.16253119  0.14501277  0.26411837    -0.73700
O204        O  0.10872731  0.10687153  0.30089375    -0.72500
Cu205      Cu  0.17647043  0.11325679  0.29975125     1.04600
Cu206      Cu  0.13430817  0.12596629  0.28183816     1.04300
C207        C  0.11965134  0.09574405  0.31541889     0.93800
C208        C  0.19067815  0.14589120  0.26692228     0.93000
C209        C  0.15111962  0.17123207  0.30799194     0.85100
C210        C  0.15981752  0.06782123  0.27359079     0.91400
O211        O  0.90900528  0.03874866  0.39283169    -0.72400
O212        O  0.83708699  0.03959405  0.42496771    -0.73400
O213        O  0.85528611  0.07183391  0.39339573    -0.62000
O214        O  0.89221543  0.00699332  0.42446047    -0.70400
O215        O  0.91370272  0.04205428  0.44125893    -0.69900
O216        O  0.87566292  0.10582084  0.41151463    -0.61200
O217        O  0.85815423  0.07330653  0.44296057    -0.73700
O218        O  0.93040078  0.07394516  0.40960906    -0.72500
Cu219      Cu  0.87255996  0.03803433  0.40838602     1.04600
Cu220      Cu  0.89514848  0.07494307  0.42699666     1.04300
C221        C  0.93082004  0.05631867  0.39589887     0.93800
C222        C  0.83597447  0.05654451  0.43889004     0.93000
C223        C  0.86027008  0.09916689  0.39753732     0.85100
C224        C  0.90970943  0.01454932  0.43739508     0.91400
O225        O  0.68489372  0.32404653  0.68579520    -0.72400
O226        O  0.62084220  0.36625382  0.65681719    -0.73400
O227        O  0.65161852  0.37800958  0.69006900    -0.62000
O228        O  0.65476222  0.31359302  0.65259267    -0.70400
O229        O  0.61977244  0.28810828  0.66735745    -0.69900
O230        O  0.61671337  0.35331513  0.70535279    -0.61200
O231        O  0.58639787  0.34144468  0.67248110    -0.73700
O232        O  0.64938771  0.29926605  0.70050019    -0.72500
Cu233      Cu  0.65427416  0.34645968  0.67085347     1.04600
Cu234      Cu  0.61687733  0.31972196  0.68698638     1.04300
C235        C  0.67698474  0.30428256  0.69739945     0.93800
C236        C  0.59345553  0.35985176  0.65999587     0.93000
C237        C  0.63373966  0.37606684  0.70356145     0.85100
C238        C  0.63787050  0.29078370  0.65396031     0.91400
O239        O  0.33493461  0.38847744  0.54131146    -0.72400
O240        O  0.41340656  0.38815714  0.56714633    -0.73400
O241        O  0.39126796  0.41779414  0.53620574    -0.62000
O242        O  0.35806433  0.35860428  0.57220590    -0.70400
O243        O  0.37305458  0.32173539  0.55419569    -0.69900
O244        O  0.40704543  0.38017329  0.51903007    -0.61200
O245        O  0.42899538  0.35049859  0.54994691    -0.73700
O246        O  0.35052911  0.35172436  0.52338967    -0.72500
Cu247      Cu  0.37376302  0.38961878  0.55476910     1.04600
Cu248      Cu  0.39033878  0.34977326  0.53598229     1.04300
C249        C  0.33013330  0.36991429  0.52848965     0.93800
C250        C  0.43356622  0.36931886  0.56269802     0.93000
C251        C  0.40557707  0.40812192  0.52235809     0.85100
C252        C  0.36062733  0.33071166  0.56883891     0.91400
O253        O  0.26704288  0.09427597  0.66589823    -0.72400
O254        O  0.33272553  0.05447546  0.63671484    -0.73400
O255        O  0.29885720  0.03858535  0.66812635    -0.62000
O256        O  0.30073067  0.10900698  0.63456439    -0.70400
O257        O  0.33452914  0.13088310  0.65213308    -0.69900
O258        O  0.33316685  0.05981573  0.68560608    -0.61200
O259        O  0.36615955  0.07665496  0.65437387    -0.73700
O260        O  0.30176317  0.11498606  0.68327322    -0.72500
Cu261      Cu  0.29857167  0.07318019  0.65078365     1.04600
Cu262      Cu  0.33501247  0.09619600  0.66951378     1.04300
C263        C  0.27439441  0.11185917  0.67884223     0.93800
C264        C  0.35989915  0.06036347  0.64066969     0.93000
C265        C  0.31601676  0.03778097  0.68194854     0.85100
C266        C  0.31788295  0.13103434  0.63803367     0.91400
O267        O  0.61250626  0.11327174  0.55393243    -0.72400
O268        O  0.57940086  0.05416211  0.51815981    -0.73400
O269        O  0.55679146  0.08557617  0.54842965    -0.62000
O270        O  0.63649511  0.08200802  0.52326570    -0.70400
O271        O  0.65080815  0.04579240  0.54189455    -0.69900
O272        O  0.56995192  0.04721430  0.56578948    -0.61200
O273        O  0.59470127  0.01693913  0.53576616    -0.73700
O274        O  0.62523468  0.07602054  0.57225119    -0.72500
Cu275      Cu  0.59601022  0.08503710  0.53523561     1.04600
Cu276      Cu  0.61081782  0.04518447  0.55448680     1.04300
C277        C  0.62284095  0.10396457  0.56909544     0.93800
C278        C  0.58079111  0.02624160  0.52174095     0.93000
C279        C  0.55079892  0.06686553  0.56100080     0.85100
C280        C  0.65637249  0.06356954  0.52874186     0.91400
O281        O  0.10274043  0.31497288  0.79836736    -0.72400
O282        O  0.15121014  0.27714301  0.75878146    -0.73400
O283        O  0.13254144  0.25965809  0.79393672    -0.62000
O284        O  0.12194584  0.33349002  0.76311693    -0.70400
O285        O  0.16308106  0.35266005  0.77517802    -0.69900
O286        O  0.17362764  0.27951361  0.80569460    -0.61200
O287        O  0.19241763  0.29669263  0.77056370    -0.73700
O288        O  0.14363556  0.33442252  0.81056335    -0.72500
Cu289      Cu  0.12564528  0.29578282  0.77807175     1.04600
Cu290      Cu  0.16960151  0.31663426  0.79083984     1.04300
C291        C  0.11547593  0.32972126  0.81104072     0.93800
C292        C  0.17957760  0.28010745  0.75878978     0.93000
C293        C  0.15489279  0.25811890  0.80471044     0.85100
C294        C  0.14094937  0.35472731  0.76432860     0.91400
O295        O  0.86629631  0.36607343  0.90114950    -0.72400
O296        O  0.90998877  0.42071399  0.93555318    -0.73400
O297        O  0.92351437  0.39287616  0.90191924    -0.62000
O298        O  0.85200076  0.39411682  0.93429381    -0.70400
O299        O  0.86888611  0.35474220  0.94945112    -0.69900
O300        O  0.94215376  0.35381214  0.91661160    -0.61200
O301        O  0.92755646  0.38133923  0.95041661    -0.73700
O302        O  0.88478370  0.32720575  0.91611012    -0.72500
Cu303      Cu  0.88738438  0.39487766  0.91781049     1.04600
Cu304      Cu  0.90646840  0.35295861  0.93377284     1.04300
C305        C  0.86908716  0.33786742  0.90317814     0.93800
C306        C  0.92615744  0.40958915  0.94815448     0.93000
C307        C  0.94373270  0.37303866  0.90375537     0.85100
C308        C  0.84844174  0.37418185  0.94647171     0.91400
O309        O  0.79918501  0.06836343  0.79286445    -0.72400
O310        O  0.80914952  0.14694401  0.81878486    -0.73400
O311        O  0.77462865  0.12690614  0.78889015    -0.62000
O312        O  0.83358583  0.08913511  0.82300150    -0.70400
O313        O  0.87038330  0.10119372  0.80413024    -0.69900
O314        O  0.81172903  0.13932092  0.77031310    -0.61200
O315        O  0.84629736  0.15858281  0.80003333    -0.73700
O316        O  0.83624744  0.08066803  0.77425133    -0.72500
Cu317      Cu  0.80274267  0.10730000  0.80647858     1.04600
Cu318      Cu  0.84233610  0.12022940  0.78645312     1.04300
C319        C  0.81651720  0.06199459  0.77960514     0.93800
C320        C  0.82979629  0.16481244  0.81365469     0.93000
C321        C  0.78404829  0.14001335  0.77457668     0.85100
C322        C  0.86141465  0.09013946  0.81918822     0.91400
O323        O  0.05700861  0.07002103  0.90768199    -0.72400
O324        O  0.12756742  0.06424790  0.94145895    -0.73400
O325        O  0.11400180  0.09738615  0.90962474    -0.62000
O326        O  0.07005213  0.03749219  0.93958218    -0.70400
O327        O  0.08934469  0.00049600  0.92328526    -0.69900
O328        O  0.13181130  0.06131130  0.89193660    -0.61200
O329        O  0.14679724  0.02871868  0.92393132    -0.73700
O330        O  0.07582429  0.03289771  0.89122950    -0.72500
Cu331      Cu  0.09159699  0.06852344  0.92522975     1.04600
Cu332      Cu  0.11171638  0.02951118  0.90708506     1.04300
C333        C  0.05547495  0.05227539  0.89408118     0.93800
C334        C  0.14850903  0.04574569  0.93779260     0.93000
C335        C  0.12880367  0.08906260  0.89569629     0.85100
C336        C  0.07213092  0.00965528  0.93601717     0.91400
O337        O  0.32711120  0.64058645  0.27340172    -0.72400
O338        O  0.39429951  0.59858203  0.29828991    -0.73400
O339        O  0.36184362  0.58839727  0.26587410    -0.62000
O340        O  0.35950207  0.65003545  0.30573414    -0.70400
O341        O  0.32682482  0.62232931  0.32094750    -0.69900
O342        O  0.32924060  0.56077708  0.28118698    -0.61200
O343        O  0.36178583  0.57119531  0.31388243    -0.73700
O344        O  0.29425394  0.61283487  0.28844580    -0.72500
Cu345      Cu  0.36178331  0.62028983  0.28522412     1.04600
Cu346      Cu  0.32684784  0.59071980  0.30156641     1.04300
C347        C  0.30011120  0.63398061  0.27734402     0.93800
C348        C  0.38866895  0.57899888  0.31040558     0.93000
C349        C  0.34615706  0.56467037  0.26737057     0.85100
C350        C  0.34286872  0.64581455  0.31965407     0.91400
O351        O  0.61409207  0.59308250  0.45591310    -0.72400
O352        O  0.54137310  0.58957148  0.42417584    -0.73400
O353        O  0.55771928  0.56484424  0.45788990    -0.62000
O354        O  0.59740003  0.61833444  0.42183416    -0.70400
O355        O  0.61627243  0.57897423  0.40748192    -0.69900
O356        O  0.57592823  0.52506973  0.44361326    -0.61200
O357        O  0.56028207  0.55020442  0.40984347    -0.73700
O358        O  0.63299348  0.55370074  0.44159608    -0.72500
Cu359      Cu  0.57716507  0.59286230  0.44047201     1.04600
Cu360      Cu  0.59719730  0.55060271  0.42518255     1.04300
C361        C  0.63484553  0.57378538  0.45389676     0.93800
C362        C  0.53931050  0.56923065  0.41207418     0.93000
C363        C  0.55962812  0.53658227  0.45607231     0.85100
C364        C  0.61226308  0.60715674  0.40864843     0.91400
O365        O  0.35924346  0.86269727  0.44609868    -0.72400
O366        O  0.43892211  0.85376397  0.42138668    -0.73400
O367        O  0.41720917  0.88931523  0.45026737    -0.62000
O368        O  0.38209574  0.82733302  0.41681877    -0.70400
O369        O  0.37063084  0.86320058  0.39721606    -0.69900
O370        O  0.40362177  0.92503681  0.43107303    -0.61200
O371        O  0.42724139  0.89032106  0.40230001    -0.73700
O372        O  0.34641678  0.89756438  0.42616739    -0.72500
Cu373      Cu  0.39966595  0.85709265  0.43440909     1.04600
Cu374      Cu  0.38643831  0.89531525  0.41358233     1.04300
C375        C  0.34001043  0.88111937  0.43982049     0.93800
C376        C  0.44560905  0.87051439  0.40794833     0.93000
C377        C  0.41686586  0.91683789  0.44557630     0.85100
C378        C  0.37167652  0.83555965  0.40144129     0.91400
O379        O  0.68482647  0.86992919  0.28725622    -0.72400
O380        O  0.68118969  0.80216167  0.32234474    -0.73400
O381        O  0.71096278  0.81210699  0.28881005    -0.62000
O382        O  0.65442406  0.85916559  0.32077248    -0.70400
O383        O  0.61640347  0.83880233  0.30593766    -0.69900
O384        O  0.67214806  0.79418819  0.27360134    -0.61200
O385        O  0.64331908  0.78223898  0.30712642    -0.73700
O386        O  0.64552301  0.85201482  0.27248045    -0.72500
Cu387      Cu  0.68425064  0.83658736  0.30524408     1.04600
Cu388      Cu  0.64305114  0.81624391  0.28918297     1.04300
C389        C  0.66574723  0.87194546  0.27448071     0.93800
C390        C  0.66154496  0.78177779  0.32048868     0.93000
C391        C  0.70027126  0.79535897  0.27633658     0.85100
C392        C  0.62633951  0.85509482  0.31881410     0.91400
O393        O  0.11233683  0.83891211  0.16272719    -0.72400
O394        O  0.17808357  0.80710825  0.19446656    -0.73400
O395        O  0.14594363  0.78494014  0.16419024    -0.62000
O396        O  0.14473848  0.86138159  0.19329823    -0.70400
O397        O  0.11111115  0.84147027  0.21188068    -0.69900
O398        O  0.11154498  0.76577814  0.18254367    -0.61200
O399        O  0.14400747  0.78706126  0.21270384    -0.73700
O400        O  0.07859604  0.81987898  0.18159267    -0.72500
Cu401      Cu  0.14645667  0.82387911  0.17802625     1.04600
Cu402      Cu  0.11016260  0.80295717  0.19784029     1.04300
C403        C  0.08508979  0.83412069  0.16710033     0.93800
C404        C  0.17130908  0.79132269  0.20832225     0.93000
C405        C  0.12899437  0.76324906  0.16888442     0.85100
C406        C  0.12774396  0.86337003  0.20724304     0.91400
O407        O  0.83945198  0.90164357  0.04146450    -0.72400
O408        O  0.91736326  0.89251432  0.06738934    -0.73400
O409        O  0.89842063  0.92502585  0.03639844    -0.62000
O410        O  0.85965104  0.86898194  0.07224239    -0.70400
O411        O  0.87067838  0.83094864  0.05407647    -0.69900
O412        O  0.91055846  0.88640336  0.01897442    -0.61200
O413        O  0.92910756  0.85381276  0.04992301    -0.73700
O414        O  0.85121114  0.86400333  0.02315928    -0.72500
Cu415      Cu  0.87822486  0.89846413  0.05489997     1.04600
Cu416      Cu  0.89067563  0.85750942  0.03584167     1.04300
C417        C  0.83283697  0.88417899  0.02837527     0.93800
C418        C  0.93521590  0.87139759  0.06308432     0.93000
C419        C  0.91148999  0.91437063  0.02235592     0.85100
C420        C  0.85991558  0.84094461  0.06897683     0.91400
O421        O  0.11649357  0.60544511  0.05650710    -0.72400
O422        O  0.08332225  0.54027744  0.02591155    -0.73400
O423        O  0.06256469  0.57175167  0.05662864    -0.62000
O424        O  0.13811933  0.57306476  0.02606566    -0.70400
O425        O  0.15826074  0.54004101  0.04490206    -0.69900
O426        O  0.08362586  0.53758122  0.07432864    -0.61200
O427        O  0.10394029  0.50582507  0.04354286    -0.73700
O428        O  0.13616498  0.57236421  0.07550997    -0.72500
Cu429      Cu  0.09951395  0.57377264  0.04058325     1.04600
Cu430      Cu  0.12134632  0.53773157  0.06013007     1.04300
C431        C  0.13078744  0.59948222  0.07101124     0.93800
C432        C  0.08722023  0.51290906  0.03012414     0.93000
C433        C  0.06147884  0.55418088  0.07035024     0.85100
C434        C  0.16031193  0.55696970  0.03102838     0.91400
O435        O  0.78070615  0.61297751  0.17948900    -0.72400
O436        O  0.83712463  0.57315769  0.14400262    -0.73400
O437        O  0.81040754  0.55663394  0.17802918    -0.62000
O438        O  0.80675929  0.62833299  0.14571756    -0.70400
O439        O  0.84524993  0.64853380  0.16018428    -0.69900
O440        O  0.84927900  0.57563988  0.19269527    -0.61200
O441        O  0.87510447  0.59310160  0.15903816    -0.73700
O442        O  0.81963563  0.63227187  0.19395226    -0.72500
Cu443      Cu  0.80738815  0.59194173  0.16137810     1.04600
Cu444      Cu  0.84863622  0.61294966  0.17704484     1.04300
C445        C  0.79143552  0.62975506  0.19193297     0.93800
C446        C  0.86515347  0.57791606  0.14567825     0.93000
C447        C  0.83029693  0.55460085  0.19036310     0.85100
C448        C  0.82543432  0.64958894  0.14768189     0.91400
C449        C  0.93862858  0.56807265  0.11909602     0.19200
C450        C  0.96863904  0.56761311  0.12445809    -0.18800
C451        C  0.99146448  0.56690040  0.11159861    -0.11100
C452        C  0.98486666  0.56655194  0.09293501     0.21500
C453        C  0.95485085  0.56716947  0.08745718    -0.20500
C454        C  0.93183006  0.56774416  0.10042075    -0.11300
C455        C  0.00922460  0.56672680  0.07919832    -0.15500
C456        C  0.03530159  0.55289779  0.08243452    -0.29300
C457        C  0.91577019  0.57235053  0.13346759    -0.03600
C458        C  0.88626777  0.56743878  0.13157458    -0.40100
H459        H  0.97452280  0.56847336  0.13872218     0.12700
H460        H  0.01431487  0.56755839  0.11635043     0.12300
H461        H  0.94924695  0.56734018  0.07314969     0.11700
H462        H  0.90897243  0.56899036  0.09576145     0.12000
H463        H  0.00562246  0.57805507  0.06633570     0.14700
H464        H  0.03788115  0.53975786  0.09473682     0.13500
H465        H  0.92386779  0.58110864  0.14632758     0.11200
H466        H  0.87738363  0.55755139  0.11926060     0.13200
C467        C  0.84230370  0.72235307  0.12152661     0.19200
C468        C  0.85255237  0.75098492  0.12613146    -0.18800
C469        C  0.85385334  0.77364794  0.11305423    -0.11100
C470        C  0.84524276  0.76793131  0.09500688     0.21500
C471        C  0.83522527  0.73925856  0.09038059    -0.20500
C472        C  0.83363495  0.71672036  0.10346994    -0.11300
C473        C  0.84961647  0.79021549  0.08032906    -0.15500
C474        C  0.84945248  0.81993313  0.08307914    -0.29300
C475        C  0.84255896  0.69836759  0.13549283    -0.03600
C476        C  0.82394108  0.67484200  0.13485828    -0.40100
H477        H  0.85984119  0.75574297  0.13985432     0.12700
H478        H  0.86271026  0.79519596  0.11696327     0.12300
H479        H  0.82910740  0.73413023  0.07649154     0.11700
H480        H  0.82664777  0.69467868  0.09920588     0.12000
H481        H  0.85412279  0.78163707  0.06678058     0.14700
H482        H  0.84351419  0.82897688  0.09628672     0.13500
H483        H  0.85832845  0.70026381  0.14663976     0.11200
H484        H  0.80701160  0.67360685  0.12435057     0.13200
C485        C  0.04013836  0.86216651  0.12595924     0.19200
C486        C  0.04402695  0.85846824  0.10717082    -0.18800
C487        C  0.02059982  0.86441812  0.09515466    -0.11100
C488        C  0.99288875  0.87453664  0.10175507     0.21500
C489        C  0.98942603  0.87940435  0.12046900    -0.20500
C490        C  0.01272172  0.87319551  0.13248143    -0.11300
C491        C  0.96720524  0.88069462  0.08963023    -0.15500
C492        C  0.96277324  0.86668938  0.07367120    -0.29300
C493        C  0.06505772  0.85435416  0.13835271    -0.03600
C494        C  0.06052081  0.84450367  0.15539507    -0.40100
H495        H  0.06510385  0.85045708  0.10180245     0.12700
H496        H  0.02436995  0.86135007  0.08075519     0.12300
H497        H  0.96844886  0.88766341  0.12585031     0.11700
H498        H  0.00924937  0.87731442  0.14681364     0.12000
H499        H  0.95012834  0.89583190  0.09470693     0.14700
H500        H  0.97849263  0.84999189  0.06887061     0.13500
H501        H  0.08760981  0.85460868  0.13286150     0.11200
H502        H  0.03796291  0.84204006  0.16061262     0.13200
C503        C  0.14780509  0.64917293  0.11228540     0.19200
C504        C  0.13638786  0.64844702  0.13003845    -0.18800
C505        C  0.13667177  0.67412500  0.14090440    -0.11100
C506        C  0.14858950  0.70112084  0.13421663     0.21500
C507        C  0.16147669  0.70132162  0.11681938    -0.20500
C508        C  0.16106565  0.67570532  0.10594277    -0.11300
C509        C  0.14831744  0.72939681  0.14490821    -0.15500
C510        C  0.12924855  0.73477334  0.15870181    -0.29300
C511        C  0.14448603  0.62238088  0.10049607    -0.03600
C512        C  0.14009944  0.62478056  0.08249693    -0.40100
H513        H  0.12647260  0.62816197  0.13534469     0.12700
H514        H  0.12760351  0.67258961  0.15449229     0.12300
H515        H  0.17138972  0.72157255  0.11146372     0.11700
H516        H  0.17103074  0.67679949  0.09255359     0.12000
H517        H  0.16365093  0.74695417  0.14076198     0.14700
H518        H  0.11297861  0.71806966  0.16269620     0.13500
H519        H  0.14207375  0.60067141  0.10694704     0.11200
H520        H  0.13965807  0.64672399  0.07622218     0.13200
C521        C  0.76256312  0.69106429  0.22443938     0.19200
C522        C  0.77640622  0.71643406  0.23187627    -0.18800
C523        C  0.75976124  0.73801518  0.24116229    -0.11100
C524        C  0.72875870  0.73453013  0.24338091     0.21500
C525        C  0.71486783  0.70927797  0.23585699    -0.20500
C526        C  0.73151591  0.68766437  0.22659029    -0.11300
C527        C  0.70997028  0.75646331  0.25337241    -0.15500
C528        C  0.72058147  0.77653246  0.26540140    -0.29300
C529        C  0.78149362  0.66921184  0.21444061    -0.03600
C530        C  0.77102846  0.64749422  0.20345762    -0.40100
H531        H  0.80024397  0.71976896  0.23033115     0.12700
H532        H  0.77130029  0.75745342  0.24630864     0.12300
H533        H  0.69101012  0.70603434  0.23736069     0.11700
H534        H  0.71987304  0.66835369  0.22138256     0.12000
H535        H  0.68595472  0.75474813  0.25149865     0.14700
H536        H  0.74427850  0.77802782  0.26823540     0.13500
H537        H  0.80551194  0.67243527  0.21532315     0.11200
H538        H  0.74727296  0.64419133  0.20157751     0.13200
C539        C  0.55712052  0.86208550  0.34937387     0.19200
C540        C  0.53932779  0.83946934  0.35690308    -0.18800
C541        C  0.51663268  0.84633765  0.36920084    -0.11100
C542        C  0.51094346  0.87616114  0.37409448     0.21500
C543        C  0.52882642  0.89887442  0.36663207    -0.20500
C544        C  0.55200221  0.89190347  0.35450029    -0.11300
C545        C  0.48478216  0.88399033  0.38557390    -0.15500
C546        C  0.47432707  0.86560667  0.39856756    -0.29300
C547        C  0.57899599  0.85360694  0.33518886    -0.03600
C548        C  0.60504744  0.86774445  0.33209250    -0.40100
H549        H  0.54267921  0.81636070  0.35300129     0.12700
H550        H  0.50274587  0.82833586  0.37421368     0.12300
H551        H  0.52456479  0.92204450  0.37000460     0.11700
H552        H  0.56501054  0.90985263  0.34861396     0.12000
H553        H  0.47344906  0.90501522  0.38294056     0.14700
H554        H  0.48673047  0.84558389  0.40209851     0.13500
H555        H  0.57420284  0.83322001  0.32769307     0.11200
H556        H  0.61179105  0.88656815  0.34043448     0.13200
C557        C  0.63574754  0.71519934  0.34927149     0.19200
C558        C  0.62859294  0.68521046  0.34597524    -0.18800
C559        C  0.62378990  0.66556706  0.36045718    -0.11100
C560        C  0.62559709  0.67582173  0.37849889     0.21500
C561        C  0.63197516  0.70598987  0.38175114    -0.20500
C562        C  0.63722389  0.72548283  0.36730598    -0.11300
C563        C  0.61859921  0.65623302  0.39412344    -0.15500
C564        C  0.62356364  0.62662077  0.39404059    -0.29300
C565        C  0.64003196  0.73585382  0.33378902    -0.03600
C566        C  0.65952281  0.75858730  0.33457726    -0.40100
H567        H  0.62675641  0.67699521  0.33217885     0.12700
H568        H  0.61780302  0.64266112  0.35748503     0.12300
H569        H  0.63279740  0.71451083  0.39551947     0.11700
H570        H  0.64163725  0.74875720  0.37026827     0.12000
H571        H  0.60875404  0.66664036  0.40606214     0.14700
H572        H  0.63466670  0.61614699  0.38256195     0.13500
H573        H  0.62694211  0.73226404  0.32156488     0.11200
H574        H  0.67387668  0.76103848  0.34636758     0.13200
C575        C  0.21270491  0.73608636  0.23921333     0.19200
C576        C  0.20515057  0.70683960  0.24427046    -0.18800
C577        C  0.22666748  0.68753199  0.25136248    -0.11100
C578        C  0.25624251  0.69732904  0.25386314     0.21500
C579        C  0.26361832  0.72684874  0.24915545    -0.20500
C580        C  0.24210368  0.74610402  0.24194483    -0.11300
C581        C  0.28022609  0.67752884  0.26090846    -0.15500
C582        C  0.27533956  0.65142841  0.26953133    -0.29300
C583        C  0.18936652  0.75505483  0.23082801    -0.03600
C584        C  0.19534566  0.77686981  0.21878564    -0.40100
H585        H  0.18263716  0.69861075  0.24226681     0.12700
H586        H  0.22000112  0.66489133  0.25441827     0.12300
H587        H  0.28616698  0.73505457  0.25103656     0.11700
H588        H  0.24854355  0.76875616  0.23863311     0.12000
H589        H  0.30306422  0.68547805  0.25953443     0.14700
H590        H  0.25286307  0.64349569  0.27208994     0.13500
H591        H  0.16624518  0.74881253  0.23329634     0.11200
H592        H  0.21824088  0.78219991  0.21516518     0.13200
C593        C  0.48341017  0.54838775  0.37459249     0.19200
C594        C  0.48732520  0.54077870  0.35626100    -0.18800
C595        C  0.46332108  0.54212668  0.34419034    -0.11100
C596        C  0.43485913  0.55076006  0.35035833     0.21500
C597        C  0.43055842  0.55651002  0.36890670    -0.20500
C598        C  0.45463030  0.55552138  0.38093138    -0.11300
C599        C  0.40961681  0.55559011  0.33773720    -0.15500
C600        C  0.41368074  0.56681362  0.32098562    -0.29300
C601        C  0.50977101  0.54880739  0.38670243    -0.03600
C602        C  0.51231190  0.56794447  0.40070090    -0.40100
H603        H  0.50920199  0.53466028  0.35116270     0.12700
H604        H  0.46713281  0.53669684  0.33004609     0.12300
H605        H  0.40872666  0.56282457  0.37399246     0.11700
H606        H  0.45067988  0.56044846  0.39512825     0.12000
H607        H  0.38709996  0.55395565  0.34320431     0.14700
H608        H  0.43609644  0.57112546  0.31597508     0.13500
H609        H  0.52844508  0.53435157  0.38324549     0.11200
H610        H  0.49458686  0.58381404  0.40359712     0.13200
C611        C  0.36048544  0.76154687  0.37529425     0.19200
C612        C  0.35735555  0.73125025  0.37988629    -0.18800
C613        C  0.35466854  0.70940674  0.36636053    -0.11100
C614        C  0.35529496  0.71746654  0.34788256     0.21500
C615        C  0.35840138  0.74770522  0.34329664    -0.20500
C616        C  0.36090330  0.76952655  0.35678507    -0.11300
C617        C  0.35486720  0.69496591  0.33303509    -0.15500
C618        C  0.34219929  0.66784333  0.33459846    -0.29300
C619        C  0.36581393  0.78378359  0.39000328    -0.03600
C620        C  0.36178461  0.81338812  0.38786796    -0.40100
H621        H  0.35748327  0.72439922  0.39399986     0.12700
H622        H  0.35318464  0.68623376  0.37043401     0.12300
H623        H  0.35935773  0.75445300  0.32917238     0.11700
H624        H  0.36432473  0.79238251  0.35253879     0.12000
H625        H  0.36476605  0.70135444  0.32011121     0.14700
H626        H  0.33051743  0.66168488  0.34697490     0.13500
H627        H  0.37418968  0.77548631  0.40289907     0.11200
H628        H  0.35240831  0.82208378  0.37537256     0.13200
C629        C  0.01044534  0.97778029  0.96738174     0.19200
C630        C  0.98514444  0.99108044  0.97529194    -0.18800
C631        C  0.96424310  0.97397255  0.98482139    -0.11100
C632        C  0.96835124  0.94301620  0.98686761     0.21500
C633        C  0.99337542  0.92957930  0.97869609    -0.20500
C634        C  0.01431693  0.94671856  0.96913270    -0.11300
C635        C  0.94739591  0.92400173  0.99751262    -0.15500
C636        C  0.92876318  0.93456582  0.01043153    -0.29300
C637        C  0.03207759  0.99745620  0.95774029    -0.03600
C638        C  0.05366047  0.98801953  0.94627606    -0.40100
H639        H  0.98143508  0.01491307  0.97404561     0.12700
H640        H  0.94488544  0.98515526  0.99039503     0.12300
H641        H  0.99706393  0.90575693  0.98001984     0.11700
H642        H  0.03362233  0.93554295  0.96349695     0.12000
H643        H  0.94897532  0.89998521  0.99553037     0.14700
H644        H  0.92789370  0.95824399  0.01348154     0.13500
H645        H  0.02907639  0.02136379  0.95960938     0.11200
H646        H  0.05668145  0.96446660  0.94339449     0.13200
C647        C  0.93589011  0.07841278  0.84428297     0.19200
C648        C  0.96567779  0.07513534  0.83870219    -0.18800
C649        C  0.98851913  0.07231378  0.85145157    -0.11100
C650        C  0.98205276  0.07286563  0.87014732     0.21500
C651        C  0.95236114  0.07662066  0.87579646    -0.20500
C652        C  0.92940400  0.07920402  0.86301097    -0.11300
C653        C  0.00609213  0.07064995  0.88390399    -0.15500
C654        C  0.03065696  0.05406941  0.88105763    -0.29300
C655        C  0.91285268  0.08360527  0.83016165    -0.03600
C656        C  0.88332940  0.07992463  0.83279115    -0.40100
H657        H  0.97135860  0.07509483  0.82438808     0.12700
H658        H  0.01129671  0.07047849  0.84662467     0.12300
H659        H  0.94693982  0.07757136  0.89013365     0.11700
H660        H  0.90688503  0.08274614  0.86788417     0.12000
H661        H  0.00310219  0.08209863  0.89680144     0.14700
H662        H  0.03267054  0.04087721  0.86873010     0.13500
H663        H  0.92068489  0.09159109  0.81704564     0.11200
H664        H  0.87486460  0.07103037  0.84550158     0.13200
C665        C  0.98559926  0.43931827  0.98158648     0.19200
C666        C  0.01311189  0.42790307  0.98763424    -0.18800
C667        C  0.03348969  0.44619403  0.99685506    -0.11100
C668        C  0.02653993  0.47629891  0.00031179     0.21500
C669        C  0.99877317  0.48744555  0.99461631    -0.20500
C670        C  0.97844079  0.46921034  0.98550493    -0.11300
C671        C  0.04742266  0.49735893  0.00934710    -0.15500
C672        C  0.07073368  0.48960882  0.01995623    -0.29300
C673        C  0.96512456  0.41951619  0.97117344    -0.03600
C674        C  0.94394377  0.42976950  0.95974702    -0.40100
H675        H  0.01912837  0.40489945  0.98487689     0.12700
H676        H  0.05476935  0.43685676  0.00083944     0.12300
H677        H  0.99269667  0.51047381  0.99726896     0.11700
H678        H  0.95713969  0.47868247  0.98169896     0.12000
H679        H  0.04198214  0.52093060  0.00801630     0.14700
H680        H  0.07595256  0.46633051  0.02252507     0.13500
H681        H  0.96895703  0.39558044  0.97205271     0.11200
H682        H  0.94085649  0.45356589  0.95774777     0.13200
C683        C  0.83110816  0.22463944  0.85063187     0.19200
C684        C  0.81113192  0.24497705  0.85857515    -0.18800
C685        C  0.82154558  0.26669241  0.87071499    -0.11100
C686        C  0.85196856  0.26768259  0.87538089     0.21500
C687        C  0.87170870  0.24692172  0.86773590    -0.20500
C688        C  0.86148085  0.22576693  0.85536611    -0.11300
C689        C  0.86378389  0.28888952  0.88890248    -0.15500
C690        C  0.85454364  0.31733952  0.89030244    -0.29300
C691        C  0.82006477  0.20107225  0.83828669    -0.03600
C692        C  0.83635853  0.19211768  0.82396380    -0.40100
H693        H  0.78756117  0.24409126  0.85533256     0.12700
H694        H  0.80577763  0.28208099  0.87680478     0.12300
H695        H  0.89515546  0.24708586  0.87136071     0.11700
H696        H  0.87723411  0.20973772  0.84989948     0.12000
H697        H  0.88248712  0.28132838  0.89710835     0.14700
H698        H  0.83753986  0.32600269  0.88121166     0.13500
H699        H  0.79888917  0.19034087  0.84138057     0.11200
H700        H  0.85657948  0.20419634  0.82035904     0.13200
C701        C  0.04949371  0.34251511  0.84392698     0.19200
C702        C  0.01938009  0.34994565  0.84142203    -0.18800
C703        C  0.00038946  0.35377821  0.85630062    -0.11100
C704        C  0.01099445  0.34987443  0.87412439     0.21500
C705        C  0.04104267  0.34194065  0.87668364    -0.20500
C706        C  0.06026496  0.33858422  0.86172940    -0.11300
C707        C  0.99040678  0.35243865  0.88995561    -0.15500
C708        C  0.96785200  0.37228883  0.89004784    -0.29300
C709        C  0.06802596  0.33620440  0.82762485    -0.03600
C710        C  0.09781933  0.34006608  0.82686026    -0.40100
H711        H  0.01040728  0.35248364  0.82784947     0.12700
H712        H  0.97713107  0.35886842  0.85377316     0.12300
H713        H  0.04960490  0.33829314  0.89025549     0.11700
H714        H  0.08316455  0.33190781  0.86409104     0.12000
H715        H  0.99358396  0.33760519  0.90147150     0.14700
H716        H  0.96601467  0.38818007  0.87895081     0.13500
H717        H  0.05641914  0.32794001  0.81567895     0.11200
H718        H  0.10963083  0.34973136  0.83831083     0.13200
C719        C  0.14528793  0.18180166  0.82845527     0.19200
C720        C  0.13251053  0.15433463  0.82357214    -0.18800
C721        C  0.13363132  0.12994162  0.83541130    -0.11100
C722        C  0.14702658  0.13267575  0.85254022     0.21500
C723        C  0.16074022  0.15984630  0.85723815    -0.20500
C724        C  0.15973797  0.18420655  0.84538086    -0.11300
C725        C  0.14422814  0.10759968  0.86562604    -0.15500
C726        C  0.14072832  0.11230619  0.88354457    -0.29300
C727        C  0.14165351  0.20775284  0.81604223    -0.03600
C728        C  0.15951439  0.23187384  0.81646095    -0.40100
H729        H  0.12121587  0.15186939  0.81065818     0.12700
H730        H  0.12291482  0.10923381  0.83147600     0.12300
H731        H  0.17178379  0.16252975  0.87019977     0.11700
H732        H  0.16937217  0.20506480  0.84988822     0.12000
H733        H  0.14030923  0.08535455  0.86019497     0.14700
H734        H  0.14174886  0.13485926  0.88893624     0.13500
H735        H  0.12378518  0.20679924  0.80608361     0.11200
H736        H  0.17844397  0.23264303  0.82561421     0.13200
C737        C  0.47670453  0.95296282  0.47607037     0.19200
C738        C  0.50309571  0.94134885  0.48352971    -0.18800
C739        C  0.52496331  0.96023848  0.49069493    -0.11100
C740        C  0.52075486  0.99141516  0.49081949     0.21500
C741        C  0.49437219  0.00305315  0.48331119    -0.20500
C742        C  0.47251489  0.98413839  0.47609614    -0.11300
C743        C  0.54247373  0.01257598  0.49918226    -0.15500
C744        C  0.56461886  0.00429651  0.51049088    -0.29300
C745        C  0.45480094  0.93165976  0.46807099    -0.03600
C746        C  0.43337864  0.93945816  0.45616281    -0.40100
H747        H  0.50704425  0.91746631  0.48359850     0.12700
H748        H  0.54505956  0.95010091  0.49593811     0.12300
H749        H  0.49039374  0.02693133  0.48328817     0.11700
H750        H  0.45234814  0.99414788  0.47083303     0.12000
H751        H  0.53829625  0.03629535  0.49726671     0.14700
H752        H  0.56856464  0.98095972  0.51352100     0.13500
H753        H  0.45829157  0.90805038  0.47081273     0.11200
H754        H  0.43034084  0.96260485  0.45227183     0.13200
C755        C  0.20565869  0.21853531  0.72602426     0.19200
C756        C  0.19460816  0.20334110  0.71073879    -0.18800
C757        C  0.21147934  0.18075528  0.70238160    -0.11100
C758        C  0.23958604  0.17272734  0.70940672     0.21500
C759        C  0.25034603  0.18775750  0.72477418    -0.20500
C760        C  0.23361458  0.21021538  0.73304983    -0.11300
C761        C  0.25958822  0.15042545  0.70072829    -0.15500
C762        C  0.25143314  0.13005214  0.68819549    -0.29300
C763        C  0.18673645  0.24110841  0.73537299    -0.03600
C764        C  0.19816044  0.26281393  0.74599106    -0.40100
H765        H  0.17295718  0.20909109  0.70520396     0.12700
H766        H  0.20264052  0.17012071  0.69035050     0.12300
H767        H  0.27187470  0.18201206  0.73049590     0.11700
H768        H  0.24243383  0.22043391  0.74522366     0.12000
H769        H  0.28289519  0.15134595  0.70480669     0.14700
H770        H  0.22832327  0.12779554  0.68403214     0.13500
H771        H  0.16265625  0.23872346  0.73424405     0.11200
H772        H  0.22213043  0.26622573  0.74663518     0.13200
C773        C  0.43586646  0.05784041  0.61656997     0.19200
C774        C  0.45592438  0.08140204  0.61362743    -0.18800
C775        C  0.47976174  0.07816242  0.60161171    -0.11100
C776        C  0.48435304  0.05102265  0.59245696     0.21500
C777        C  0.46459053  0.02718844  0.59555435    -0.20500
C778        C  0.44024252  0.03064085  0.60737969    -0.11300
C779        C  0.51095788  0.04681653  0.58076584    -0.15500
C780        C  0.52190869  0.06906236  0.57045833    -0.29300
C781        C  0.41147584  0.06260412  0.62983106    -0.03600
C782        C  0.38433066  0.04980155  0.62877697    -0.40100
H783        H  0.45314778  0.10246952  0.62068920     0.12700
H784        H  0.49513225  0.09663788  0.59994003     0.12300
H785        H  0.46804871  0.00592758  0.58884055     0.11700
H786        H  0.42545639  0.01188609  0.60967968     0.12000
H787        H  0.52198633  0.02518646  0.58086849     0.14700
H788        H  0.50961635  0.08989331  0.56921646     0.13500
H789        H  0.41524424  0.07984351  0.63998192     0.11200
H790        H  0.37923569  0.03404510  0.61800718     0.13200
C791        C  0.51121232  0.47166585  0.47326417     0.19200
C792        C  0.49916022  0.44663433  0.46443325    -0.18800
C793        C  0.47604522  0.43024785  0.47241692    -0.11100
C794        C  0.46430790  0.43869460  0.48932834     0.21500
C795        C  0.47676159  0.46335671  0.49839515    -0.20500
C796        C  0.50004153  0.47957762  0.49050393    -0.11300
C797        C  0.44134000  0.41956691  0.49798449    -0.15500
C798        C  0.42248213  0.42929471  0.51097294    -0.29300
C799        C  0.53479671  0.48917620  0.46383455    -0.03600
C800        C  0.54126063  0.51769345  0.46800870    -0.40100
H801        H  0.50747754  0.43986868  0.45122832     0.12700
H802        H  0.46727302  0.41091706  0.46535546     0.12300
H803        H  0.46930589  0.46963965  0.51185026     0.11700
H804        H  0.50941272  0.49788136  0.49817839     0.12000
H805        H  0.44105891  0.39613554  0.49410044     0.14700
H806        H  0.42160152  0.45280330  0.51455063     0.13500
H807        H  0.54511168  0.47923572  0.45189319     0.11200
H808        H  0.52994135  0.52890857  0.47910042     0.13200
C809        C  0.33606694  0.20672451  0.61558825     0.19200
C810        C  0.34492714  0.23482163  0.62210313    -0.18800
C811        C  0.34823223  0.25900100  0.61024679    -0.11100
C812        C  0.34290877  0.25541226  0.59155092     0.21500
C813        C  0.33398422  0.22736308  0.58504691    -0.20500
C814        C  0.33054671  0.20325578  0.59689079    -0.11300
C815        C  0.34939823  0.27931105  0.57820081    -0.15500
C816        C  0.35003447  0.30862170  0.58223146    -0.29300
C817        C  0.33453080  0.18124686  0.62847159    -0.03600
C818        C  0.31829962  0.15650288  0.62536681    -0.40100
H819        H  0.34971716  0.23796897  0.63639644     0.12700
H820        H  0.35607048  0.28002692  0.61568605     0.12300
H821        H  0.33027054  0.22391730  0.57065627     0.11700
H822        H  0.32465551  0.18180112  0.59118411     0.12000
H823        H  0.35437210  0.27225419  0.56438708     0.14700
H824        H  0.34345607  0.31653365  0.59558719     0.13500
H825        H  0.34686948  0.18317720  0.64111956     0.11200
H826        H  0.30451186  0.15473869  0.61331773     0.13200
C827        C  0.71318869  0.24111728  0.72543221     0.19200
C828        C  0.70249256  0.21290201  0.73067465    -0.18800
C829        C  0.72131991  0.19216577  0.73900696    -0.11100
C830        C  0.75132429  0.19937235  0.74247920     0.21500
C831        C  0.76213833  0.22746366  0.73708659    -0.20500
C832        C  0.74327865  0.24824922  0.72874942    -0.11300
C833        C  0.77194987  0.17838830  0.75177382    -0.15500
C834        C  0.76271085  0.15715300  0.76345926    -0.29300
C835        C  0.69192741  0.26228354  0.71685024    -0.03600
C836        C  0.69982598  0.28629710  0.70687317    -0.40100
H837        H  0.67944545  0.20676478  0.72820073     0.12700
H838        H  0.71232846  0.17048636  0.74250344     0.12300
H839        H  0.78516481  0.23356803  0.73964351     0.11700
H840        H  0.75228847  0.26991266  0.72526991     0.12000
H841        H  0.79577472  0.18225728  0.75012801     0.14700
H842        H  0.73912733  0.15435691  0.76641436     0.13500
H843        H  0.66835736  0.25677587  0.71806788     0.11200
H844        H  0.72311959  0.29174420  0.70456825     0.13200
C845        C  0.49588068  0.38760653  0.59697877     0.19200
C846        C  0.49510638  0.39929517  0.61465862    -0.18800
C847        C  0.52027544  0.39785203  0.62579316    -0.11100
C848        C  0.54685346  0.38481026  0.61938151     0.21500
C849        C  0.54818694  0.37470175  0.60136376    -0.20500
C850        C  0.52291910  0.37594367  0.59024982    -0.11300
C851        C  0.57284582  0.37978817  0.63145537    -0.15500
C852        C  0.56918588  0.37251414  0.64901365    -0.29300
C853        C  0.46806332  0.38815222  0.58607489    -0.03600
C854        C  0.46237935  0.36906029  0.57237544    -0.40100
H855        H  0.47472098  0.40892109  0.62003889     0.12700
H856        H  0.51879448  0.40667368  0.63945791     0.12300
H857        H  0.56854406  0.36489729  0.59606901     0.11700
H858        H  0.52470070  0.36774624  0.57647015     0.12000
H859        H  0.59485940  0.37779267  0.62531568     0.14700
H860        H  0.54685952  0.37144562  0.65477220     0.13500
H861        H  0.45082416  0.40385634  0.59022013     0.11200
H862        H  0.47862741  0.35224867  0.56847975     0.13200
C863        C  0.62701758  0.17612309  0.59755010     0.19200
C864        C  0.62858445  0.20670971  0.59354281    -0.18800
C865        C  0.62886981  0.22794274  0.60744527    -0.11100
C866        C  0.62740944  0.21901320  0.62575368     0.21500
C867        C  0.62555817  0.18845176  0.62980020    -0.20500
C868        C  0.62548590  0.16715471  0.61587363    -0.11300
C869        C  0.62628642  0.24116752  0.64076627    -0.15500
C870        C  0.63949140  0.26803572  0.63952742    -0.29300
C871        C  0.62432698  0.15461786  0.58225892    -0.03600
C872        C  0.63061179  0.12531244  0.58362705    -0.40100
H873        H  0.62917500  0.21424729  0.57956041     0.12700
H874        H  0.62927945  0.25133612  0.60375726     0.12300
H875        H  0.62395691  0.18105212  0.64378055     0.11700
H876        H  0.62318700  0.14387829  0.61954053     0.12000
H877        H  0.61502046  0.23491430  0.65329167     0.14700
H878        H  0.65263367  0.27359191  0.62758674     0.13500
H879        H  0.61605065  0.16327518  0.56942275     0.11200
H880        H  0.63979934  0.11627999  0.59609635     0.13200
C881        C  0.72125852  0.07464400  0.49468726     0.19200
C882        C  0.72186999  0.07587496  0.47565404    -0.18800
C883        C  0.74894579  0.07436392  0.46620201    -0.11100
C884        C  0.77616594  0.07206461  0.47562057     0.21500
C885        C  0.77568053  0.07182581  0.49469161    -0.20500
C886        C  0.74848015  0.07279376  0.50416695    -0.11300
C887        C  0.80521092  0.07089909  0.46576577    -0.15500
C888        C  0.80810112  0.05689319  0.44968408    -0.29300
C889        C  0.69191812  0.07638696  0.50413889    -0.03600
C890        C  0.68617183  0.06257476  0.52000503    -0.40100
H891        H  0.70126360  0.07777055  0.46805226     0.12700
H892        H  0.74854918  0.07557781  0.45151866     0.12300
H893        H  0.79636958  0.07057264  0.50225482     0.11700
H894        H  0.74883821  0.07266803  0.51886714     0.12000
H895        H  0.82466595  0.08100369  0.47207425     0.14700
H896        H  0.78911575  0.04498513  0.44404993     0.13500
H897        H  0.67388606  0.08795899  0.49721558     0.11200
H898        H  0.70337373  0.04918014  0.52644928     0.13200
C899        C  0.14418917  0.94227727  0.22633175     0.19200
C900        C  0.17013140  0.95960618  0.22833185    -0.18800
C901        C  0.16932493  0.98679803  0.23775236    -0.11100
C902        C  0.14234732  0.99743828  0.24515384     0.21500
C903        C  0.11634394  0.98035042  0.24292928    -0.20500
C904        C  0.11721796  0.95300180  0.23373168    -0.11300
C905        C  0.14021976  0.02688370  0.25442578    -0.15500
C906        C  0.16267939  0.03878042  0.26415812    -0.29300
C907        C  0.14568207  0.91400545  0.21567981    -0.03600
C908        C  0.12662423  0.89108217  0.21817703    -0.40100
H909        H  0.19109287  0.95210101  0.22254123     0.12700
H910        H  0.18963283  0.99979753  0.23878397     0.12300
H911        H  0.09522175  0.98825327  0.24829270     0.11700
H912        H  0.09655177  0.94082384  0.23200228     0.12000
H913        H  0.11890147  0.03847913  0.25394568     0.14700
H914        H  0.18331569  0.02638366  0.26593862     0.13500
H915        H  0.16356417  0.91172139  0.20577024     0.11200
H916        H  0.10984706  0.89223824  0.22881305     0.13200
C917        C  0.00358592  0.07471033  0.37009250     0.19200
C918        C  0.03305842  0.08205468  0.37476050    -0.18800
C919        C  0.05514567  0.08458079  0.36133613    -0.11100
C920        C  0.04799044  0.08011770  0.34291198     0.21500
C921        C  0.01849473  0.07293518  0.33828378    -0.20500
C922        C  0.99654273  0.07020946  0.35166719    -0.11300
C923        C  0.06964567  0.08578666  0.32800270    -0.15500
C924        C  0.09951988  0.08504274  0.32995872    -0.29300
C925        C  0.98020929  0.07351042  0.38445527    -0.03600
C926        C  0.95588111  0.05612807  0.38288285    -0.40100
H927        H  0.03893543  0.08610361  0.38881498     0.12700
H928        H  0.07740565  0.09112074  0.36539507     0.12300
H929        H  0.01225790  0.06998214  0.32418191     0.11700
H930        H  0.97388399  0.06561459  0.34742551     0.12000
H931        H  0.06036874  0.09159136  0.31483046     0.14700
H932        H  0.10944024  0.07799930  0.34269332     0.13500
H933        H  0.98314658  0.08709481  0.39655759     0.11200
H934        H  0.95376677  0.04120995  0.37132595     0.13200
C935        C  0.26389615  0.35140677  0.49738497     0.19200
C936        C  0.26091308  0.35016543  0.47847049    -0.18800
C937        C  0.23261906  0.34984550  0.47053652    -0.11100
C938        C  0.20676152  0.35017099  0.48143118     0.21500
C939        C  0.20972487  0.34993969  0.50037743    -0.20500
C940        C  0.23808058  0.35089816  0.50832464    -0.11300
C941        C  0.17666867  0.35062818  0.47311321    -0.15500
C942        C  0.17117230  0.36735448  0.45836815    -0.29300
C943        C  0.29416913  0.35257425  0.50538077    -0.03600
C944        C  0.30030945  0.36922242  0.52007794    -0.40100
H945        H  0.28051582  0.35002988  0.46981974     0.12700
H946        H  0.23096077  0.34912918  0.45586920     0.12300
H947        H  0.19009602  0.34970174  0.50900109     0.11700
H948        H  0.23982268  0.35094989  0.52299240     0.12000
H949        H  0.15883865  0.33776229  0.47938008     0.14700
H950        H  0.18871676  0.38162399  0.45297487     0.13500
H951        H  0.31204553  0.34059928  0.49851862     0.11200
H952        H  0.28287695  0.38280004  0.52620932     0.13200
C953        C  0.16315690  0.23539274  0.34207351     0.19200
C954        C  0.17350516  0.23534429  0.36003869    -0.18800
C955        C  0.16800998  0.25965752  0.37144903    -0.11100
C956        C  0.15221949  0.28467199  0.36502863     0.21500
C957        C  0.14371274  0.28563770  0.34671405    -0.20500
C958        C  0.14897083  0.26115796  0.33532087    -0.11300
C959        C  0.14302323  0.30922930  0.37736099    -0.15500
C960        C  0.13490806  0.30375489  0.39461832    -0.29300
C961        C  0.16715387  0.20798914  0.33099400    -0.03600
C962        C  0.14837556  0.20005604  0.31758320    -0.40100
H963        H  0.18502653  0.21601535  0.36544621     0.12700
H964        H  0.17579181  0.25866891  0.38534902     0.12300
H965        H  0.13197086  0.30489872  0.34139751     0.11700
H966        H  0.14171965  0.26241106  0.32133227     0.12000
H967        H  0.13967937  0.33138540  0.37167863     0.14700
H968        H  0.13572195  0.28107424  0.39983836     0.13500
H969        H  0.18480561  0.19266500  0.33497334     0.11200
H970        H  0.12972336  0.21435029  0.31398263     0.13200
C971        C  0.85360959  0.49123886  0.22307296     0.19200
C972        C  0.88000214  0.47470831  0.22537720    -0.18800
C973        C  0.87987518  0.44799814  0.23535028    -0.11100
C974        C  0.85333588  0.43759554  0.24347045     0.21500
C975        C  0.82728444  0.45478788  0.24174252    -0.20500
C976        C  0.82731355  0.48117090  0.23157751    -0.11300
C977        C  0.85188734  0.40939200  0.25415412    -0.15500
C978        C  0.86965660  0.38561273  0.25108416    -0.29300
C979        C  0.85402261  0.51907884  0.21199719    -0.03600
C980        C  0.83045582  0.52759181  0.20191580    -0.40100
H981        H  0.90065328  0.48224742  0.21920891     0.12700
H982        H  0.90059594  0.43581317  0.23686437     0.12300
H983        H  0.80667354  0.44756144  0.24810232     0.11700
H984        H  0.80678919  0.49384313  0.23058569     0.12000
H985        H  0.83414732  0.40748630  0.26418859     0.14700
H986        H  0.88641924  0.38643862  0.24042483     0.13500
H987        H  0.87461830  0.53187798  0.21131440     0.11200
H988        H  0.81075892  0.51345859  0.20138452     0.13200
C989        C  0.98428987  0.33768951  0.37558045     0.19200
C990        C  0.98433874  0.31440974  0.36286705    -0.18800
C991        C  0.96392434  0.31438203  0.34854729    -0.11100
C992        C  0.94275365  0.33747254  0.34689405     0.21500
C993        C  0.94204391  0.36018939  0.35999768    -0.20500
C994        C  0.96285266  0.36051960  0.37412650    -0.11300
C995        C  0.92012184  0.33727719  0.33225567    -0.15500
C996        C  0.92594154  0.32623053  0.31565623    -0.29300
C997        C  0.00717400  0.33800345  0.39002658    -0.03600
C998        C  0.02123870  0.36332150  0.39461358    -0.40100
H999        H  0.00054034  0.29650323  0.36384831     0.12700
H1000       H  0.96436860  0.29597201  0.33901357     0.12300
H1001       H  0.92556504  0.37785892  0.35917565     0.11700
H1002       H  0.96202202  0.37843689  0.38400162     0.12000
H1003       H  0.89806248  0.34609210  0.33532530     0.14700
H1004       H  0.94834595  0.31870224  0.31229228     0.13500
H1005       H  0.01490251  0.31681048  0.39548793     0.11200
H1006       H  0.01566633  0.38404363  0.38771244     0.13200
C1007       C  0.83600560  0.14624698  0.35643900     0.19200
C1008       C  0.84226514  0.14314022  0.33784820    -0.18800
C1009       C  0.84104015  0.16787820  0.32624280    -0.11100
C1010       C  0.83333772  0.19626135  0.33304324     0.21500
C1011       C  0.82518063  0.19892096  0.35138144    -0.20500
C1012       C  0.82651148  0.17424375  0.36298277    -0.11300
C1013       C  0.83391541  0.22363675  0.32160886    -0.15500
C1014       C  0.85160902  0.22670128  0.30691377    -0.29300
C1015       C  0.84096665  0.12033489  0.36872896    -0.03600
C1016       C  0.84938756  0.12390862  0.38611965    -0.40100
H1017       H  0.84909317  0.12171420  0.33239650     0.12700
H1018       H  0.84630371  0.16466864  0.31203058     0.12300
H1019       H  0.81854463  0.22037696  0.35688301     0.11700
H1020       H  0.82034136  0.17727894  0.37707886     0.12000
H1021       H  0.82100889  0.24274314  0.32626411     0.14700
H1022       H  0.86587004  0.20844458  0.30256599     0.13500
H1023       H  0.84108602  0.09806091  0.36284629     0.11200
H1024       H  0.85176055  0.14621908  0.39170292     0.13200
C1025       C  0.20427926  0.05472865  0.97704755     0.19200
C1026       C  0.20198856  0.05097365  0.99590487    -0.18800
C1027       C  0.22769765  0.04943930  0.00663259    -0.11100
C1028       C  0.25617112  0.05219111  0.99866481     0.21500
C1029       C  0.25836563  0.05699396  0.97989152    -0.20500
C1030       C  0.23270528  0.05797530  0.96913418    -0.11300
C1031       C  0.28387770  0.05132284  0.00964514    -0.15500
C1032       C  0.28650958  0.03465739  0.02474468    -0.29300
C1033       C  0.17676795  0.05609523  0.96592873    -0.03600
C1034       C  0.17543885  0.04410921  0.94922068    -0.40100
H1035       H  0.18027834  0.04891045  0.00230482     0.12700
H1036       H  0.22520523  0.04669764  0.02116355     0.12300
H1037       H  0.28002304  0.05970366  0.97351349     0.11700
H1038       H  0.23509414  0.06178457  0.95468068     0.12000
H1039       H  0.30299264  0.06400140  0.00478609     0.14700
H1040       H  0.26813781  0.02053232  0.02911838     0.13500
H1041       H  0.15687255  0.06597597  0.97191021     0.11200
H1042       H  0.19459713  0.03212485  0.94380949     0.13200
C1043       C  0.64864884  0.93211337  0.23862502     0.19200
C1044       C  0.62315348  0.94886969  0.23427047    -0.18800
C1045       C  0.62540963  0.97409746  0.22309995    -0.11100
C1046       C  0.65324385  0.98267888  0.21587730     0.21500
C1047       C  0.67851320  0.96537785  0.21980388    -0.20500
C1048       C  0.67633252  0.94046210  0.23112141    -0.11300
C1049       C  0.65664809  0.00856216  0.20349179    -0.15500
C1050       C  0.63923848  0.03302805  0.20420290    -0.29300
C1051       C  0.64586192  0.90573811  0.25072869    -0.03600
C1052       C  0.66791071  0.89764402  0.26206531    -0.40100
H1053       H  0.60152293  0.94258747  0.23966968     0.12700
H1054       H  0.60531871  0.98642248  0.21985987     0.12300
H1055       H  0.70008264  0.97124423  0.21413859     0.11700
H1056       H  0.69627048  0.92747570  0.23370043     0.12000
H1057       H  0.67505486  0.00786276  0.19384822     0.14700
H1058       H  0.62182270  0.03490969  0.21442165     0.13500
H1059       H  0.62478673  0.89369788  0.25098983     0.11200
H1060       H  0.68805185  0.91109024  0.26290129     0.13200
C1061       C  0.73367505  0.18884641  0.21390078     0.19200
C1062       C  0.72483500  0.21120307  0.22614738    -0.18800
C1063       C  0.74563146  0.23127050  0.23327530    -0.11100
C1064       C  0.77587667  0.22962213  0.22811088     0.21500
C1065       C  0.78469615  0.20732059  0.21580723    -0.20500
C1066       C  0.76389246  0.18724195  0.20868352    -0.11300
C1067       C  0.79931397  0.24910517  0.23609561    -0.15500
C1068       C  0.79385888  0.27364985  0.24616600    -0.29300
C1069       C  0.71033893  0.16892149  0.20623985    -0.03600
C1070       C  0.71596011  0.14349042  0.19707145    -0.40100
H1071       H  0.70169441  0.21304443  0.23033537     0.12700
H1072       H  0.73780268  0.24748320  0.24305242     0.12300
H1073       H  0.80785181  0.20541637  0.21165844     0.11700
H1074       H  0.77166981  0.17097407  0.19891818     0.12000
H1075       H  0.82232086  0.24183143  0.23437374     0.14700
H1076       H  0.77131322  0.28176714  0.24822914     0.13500
H1077       H  0.68728129  0.17608297  0.20785628     0.11200
H1078       H  0.73857654  0.13533209  0.19535973     0.13200
C1079       C  0.53075402  0.06583934  0.12533183     0.19200
C1080       C  0.50141522  0.06291711  0.13177340    -0.18800
C1081       C  0.47786184  0.05811366  0.11972752    -0.11100
C1082       C  0.48322114  0.05645504  0.10092135     0.21500
C1083       C  0.51253179  0.05949289  0.09445285    -0.20500
C1084       C  0.53616112  0.06395869  0.10652793    -0.11300
C1085       C  0.45843741  0.05360292  0.08774929    -0.15500
C1086       C  0.43311339  0.03886072  0.09164990    -0.29300
C1087       C  0.55464586  0.07363280  0.13837679    -0.03600
C1088       C  0.58367654  0.06753620  0.13553470    -0.40100
H1089       H  0.49664997  0.06483178  0.14616349     0.12700
H1090       H  0.45540321  0.05681982  0.12513147     0.12300
H1091       H  0.51709478  0.05873840  0.08000072     0.11700
H1092       H  0.55836246  0.06710201  0.10102619     0.12000
H1093       H  0.46133019  0.06352178  0.07438301     0.14700
H1094       H  0.43086174  0.02704793  0.10446275     0.13500
H1095       H  0.54800422  0.08518194  0.15073571     0.11200
H1096       H  0.59060940  0.05452317  0.12381854     0.13200
C1097       C  0.33330066  0.49267108  0.23947824     0.19200
C1098       C  0.30784726  0.47609742  0.23481906    -0.18800
C1099       C  0.30995585  0.45183373  0.22291278    -0.11100
C1100       C  0.33775369  0.44331516  0.21561188     0.21500
C1101       C  0.36332691  0.45948458  0.22054648    -0.20500
C1102       C  0.36114280  0.48410414  0.23223360    -0.11300
C1103       C  0.34065881  0.41696753  0.20343319    -0.15500
C1104       C  0.31932453  0.40968040  0.19140550    -0.29300
C1105       C  0.33031987  0.51738670  0.25285639    -0.03600
C1106       C  0.34845122  0.54137639  0.25317066    -0.40100
H1107       H  0.28624385  0.48191298  0.24045689     0.12700
H1108       H  0.28992191  0.43930515  0.21981379     0.12300
H1109       H  0.38502826  0.45308216  0.21530521     0.11700
H1110       H  0.38136534  0.49580268  0.23597773     0.12000
H1111       H  0.36112356  0.40394222  0.20395756     0.14700
H1112       H  0.29989263  0.42401429  0.18995102     0.13500
H1113       H  0.31211458  0.51597880  0.26260953     0.11200
H1114       H  0.36555748  0.54404806  0.24282392     0.13200
C1115       C  0.25246159  0.24716426  0.21323682     0.19200
C1116       C  0.26515136  0.22006458  0.21897718    -0.18800
C1117       C  0.24815996  0.19902629  0.22847116    -0.11100
C1118       C  0.21805825  0.20484880  0.23264566     0.21500
C1119       C  0.20531893  0.23187497  0.22683440    -0.20500
C1120       C  0.22232217  0.25293144  0.21732617    -0.11300
C1121       C  0.19922604  0.18357117  0.24309452    -0.15500
C1122       C  0.21031045  0.16313745  0.25469673    -0.29300
C1123       C  0.27164092  0.26861588  0.20317288    -0.03600
C1124       C  0.26136314  0.29068891  0.19237703    -0.40100
H1125       H  0.28829141  0.21498882  0.21593610     0.12700
H1126       H  0.25863582  0.17818400  0.23227810     0.12300
H1127       H  0.18219908  0.23694285  0.22992502     0.11700
H1128       H  0.21185075  0.27376022  0.21350781     0.12000
H1129       H  0.17516136  0.18654514  0.24233023     0.14700
H1130       H  0.23421311  0.16108518  0.25670400     0.13500
H1131       H  0.29558519  0.26469913  0.20378772     0.11200
H1132       H  0.23759730  0.29423315  0.19058929     0.13200
C1133       C  0.32302340  0.20719969  0.11893099     0.19200
C1134       C  0.32480698  0.17863690  0.12669501    -0.18800
C1135       C  0.32390866  0.15308895  0.11575872    -0.11100
C1136       C  0.32141202  0.15575893  0.09677127     0.21500
C1137       C  0.31895467  0.18431022  0.08908815    -0.20500
C1138       C  0.31978505  0.20976422  0.09999093    -0.11300
C1139       C  0.32562131  0.13006408  0.08434164    -0.15500
C1140       C  0.32343460  0.10119340  0.08925153    -0.29300
C1141       C  0.32625812  0.23387404  0.13073418    -0.03600
C1142       C  0.31449910  0.26049193  0.12635330    -0.40100
H1143       H  0.32752766  0.17611244  0.14123416     0.12700
H1144       H  0.32666511  0.13154657  0.12217655     0.12300
H1145       H  0.31751135  0.18699919  0.07448647     0.11700
H1146       H  0.31922286  0.23135025  0.09340239     0.12000
H1147       H  0.33278307  0.13534838  0.07058690     0.14700
H1148       H  0.31478388  0.09490618  0.10248246     0.13500
H1149       H  0.33774627  0.23130506  0.14363373     0.11200
H1150       H  0.30090824  0.26278617  0.11424390     0.13200
C1151       C  0.72414704  0.35417983  0.99297232     0.19200
C1152       C  0.72774916  0.35573479  0.97407597    -0.18800
C1153       C  0.75636591  0.35570462  0.96634983    -0.11100
C1154       C  0.78191956  0.35334076  0.97738280     0.21500
C1155       C  0.77823374  0.35016474  0.99620142    -0.20500
C1156       C  0.74964169  0.35098817  0.00397006    -0.11300
C1157       C  0.81246072  0.35410503  0.96940338    -0.15500
C1158       C  0.81948977  0.37356136  0.95616631    -0.29300
C1159       C  0.69371901  0.35600471  0.00102268    -0.03600
C1160       C  0.68828329  0.37284762  0.01577970    -0.40100
H1161       H  0.70843185  0.35778832  0.96532948     0.12700
H1162       H  0.75852605  0.35739635  0.95173181     0.12300
H1163       H  0.79754097  0.34786629  0.00493156     0.11700
H1164       H  0.74742950  0.34901853  0.01857208     0.12000
H1165       H  0.82944506  0.33926818  0.97483103     0.14700
H1166       H  0.80269085  0.38946134  0.95168999     0.13500
H1167       H  0.67539810  0.34474595  0.99420481     0.11200
H1168       H  0.70643199  0.38575098  0.02164347     0.13200
C1169       C  0.64563561  0.26734102  0.09312278     0.19200
C1170       C  0.65072544  0.23768045  0.08782743    -0.18800
C1171       C  0.65201786  0.21488844  0.10072992    -0.11100
C1172       C  0.64815578  0.22133426  0.11929358     0.21500
C1173       C  0.64353616  0.25106983  0.12463459    -0.20500
C1174       C  0.64238203  0.27392408  0.11171378    -0.11300
C1175       C  0.64645760  0.19740400  0.13319356    -0.15500
C1176       C  0.65917843  0.17043496  0.13103806    -0.29300
C1177       C  0.64026659  0.28991992  0.07878207    -0.03600
C1178       C  0.64209990  0.31960448  0.08138471    -0.40100
H1179       H  0.65280809  0.23197626  0.07357418     0.12700
H1180       H  0.65468550  0.19218413  0.09597492     0.12300
H1181       H  0.64013252  0.25654124  0.13882689     0.11700
H1182       H  0.63753290  0.29635723  0.11630695     0.12000
H1183       H  0.63439125  0.20224851  0.14568090     0.14700
H1184       H  0.67293480  0.16577476  0.11922375     0.13500
H1185       H  0.63340957  0.28157276  0.06555937     0.11200
H1186       H  0.65046728  0.32864866  0.09406637     0.13200
C1187       C  0.43396574  0.36895493  0.11100160     0.19200
C1188       C  0.46348309  0.37235575  0.11700867    -0.18800
C1189       C  0.48721476  0.37257569  0.10469044    -0.11100
C1190       C  0.48202672  0.36925168  0.08595980     0.21500
C1191       C  0.45251055  0.36577800  0.07988268    -0.20500
C1192       C  0.42861861  0.36584192  0.09225445    -0.11300
C1193       C  0.50724913  0.36789452  0.07277436    -0.15500
C1194       C  0.53272609  0.38316936  0.07546187    -0.29300
C1195       C  0.41019197  0.36510034  0.12491438    -0.03600
C1196       C  0.38069231  0.36877981  0.12201581    -0.40100
H1197       H  0.46829403  0.37417770  0.13138745     0.12700
H1198       H  0.50968971  0.37429542  0.10997103     0.12300
H1199       H  0.44797174  0.36277238  0.06555057     0.11700
H1200       H  0.40625631  0.36225406  0.08716498     0.12000
H1201       H  0.50462815  0.35453574  0.06055486     0.14700
H1202       H  0.53445410  0.39820383  0.08699274     0.13500
H1203       H  0.41755351  0.35778391  0.13825943     0.11200
H1204       H  0.37259562  0.37749687  0.10918230     0.13200
C1205       C  0.76549187  0.87488448  0.99641249     0.19200
C1206       C  0.76161095  0.87613485  0.97753131    -0.18800
C1207       C  0.73292849  0.87578492  0.97000705    -0.11100
C1208       C  0.70758351  0.87349555  0.98126087     0.21500
C1209       C  0.71150414  0.87173835  0.00012562    -0.20500
C1210       C  0.74014693  0.87276410  0.00766922    -0.11300
C1211       C  0.67705826  0.87102168  0.97356547    -0.15500
C1212       C  0.66869796  0.88580179  0.95851686    -0.29300
C1213       C  0.79612953  0.87388625  0.00404072    -0.03600
C1214       C  0.80314032  0.88702717  0.01987966    -0.40100
H1215       H  0.78082734  0.87732852  0.96859607     0.12700
H1216       H  0.73066744  0.87634640  0.95537322     0.12300
H1217       H  0.69234647  0.86951926  0.00903443     0.11700
H1218       H  0.74248050  0.87094084  0.02226226     0.12000
H1219       H  0.66091483  0.85715374  0.98068649     0.14700
H1220       H  0.68410201  0.90133450  0.95211346     0.13500
H1221       H  0.81340189  0.86253192  0.99627471     0.11200
H1222       H  0.78647160  0.90029417  0.02697398     0.13200
C1223       C  0.44854529  0.96240646  0.00572570     0.19200
C1224       C  0.46152311  0.97266286  0.98954521    -0.18800
C1225       C  0.48439122  0.95665116  0.98115241    -0.11100
C1226       C  0.49521956  0.93009322  0.98893187     0.21500
C1227       C  0.48181456  0.91936851  0.00490963    -0.20500
C1228       C  0.45880365  0.93545938  0.01334755    -0.11300
C1229       C  0.51914670  0.91238226  0.98002047    -0.15500
C1230       C  0.53948679  0.92468268  0.96879012    -0.29300
C1231       C  0.42623252  0.98189036  0.01475170    -0.03600
C1232       C  0.40696417  0.97304815  0.02775313    -0.40100
H1233       H  0.45397154  0.99328478  0.98336263     0.12700
H1234       H  0.49315147  0.96501102  0.96843033     0.12300
H1235       H  0.48950226  0.89874940  0.01102324     0.11700
H1236       H  0.44978151  0.92712065  0.02600383     0.12000
H1237       H  0.51921994  0.88836937  0.98221127     0.14700
H1238       H  0.54025135  0.94870739  0.96689201     0.13500
H1239       H  0.42621955  0.00520536  0.01061009     0.11200
H1240       H  0.40556892  0.94980469  0.03182432     0.13200
C1241       C  0.33626783  0.97897500  0.71818410     0.19200
C1242       C  0.34320827  0.97969385  0.73676470    -0.18800
C1243       C  0.34600321  0.95313814  0.74666651    -0.11100
C1244       C  0.34245639  0.92533345  0.73803377     0.21500
C1245       C  0.33652938  0.92459120  0.71935245    -0.20500
C1246       C  0.33323211  0.95109773  0.70952763    -0.11300
C1247       C  0.34551176  0.89675353  0.74803572    -0.15500
C1248       C  0.33574683  0.89323053  0.76518194    -0.29300
C1249       C  0.33383178  0.00748005  0.70794940    -0.03600
C1250       C  0.31637464  0.01049785  0.69320505    -0.40100
H1251       H  0.34624810  0.00086149  0.74365264     0.12700
H1252       H  0.35142016  0.95436385  0.76097360     0.12300
H1253       H  0.33416695  0.90341289  0.71237429     0.11700
H1254       H  0.32898410  0.94964481  0.69509023     0.12000
H1255       H  0.35407633  0.87753459  0.74064837     0.14700
H1256       H  0.32493975  0.91169555  0.77216010     0.13500
H1257       H  0.34658349  0.02653485  0.71278915     0.11200
H1258       H  0.30229317  0.99208918  0.68887784     0.13200
C1259       C  0.42755715  0.85720264  0.85516793     0.19200
C1260       C  0.42603421  0.84913665  0.87357217    -0.18800
C1261       C  0.44987673  0.85519974  0.88528905    -0.11100
C1262       C  0.47561475  0.86980293  0.87879890     0.21500
C1263       C  0.47652457  0.87898539  0.86058247    -0.20500
C1264       C  0.45285453  0.87268312  0.84885577    -0.11300
C1265       C  0.50184867  0.87619504  0.89050076    -0.15500
C1266       C  0.50905426  0.86003960  0.90528514    -0.29300
C1267       C  0.40247142  0.84927428  0.84290301    -0.03600
C1268       C  0.40657154  0.84317362  0.82517150    -0.40100
H1269       H  0.40655532  0.83763446  0.87882114     0.12700
H1270       H  0.44792055  0.84866496  0.89938446     0.12300
H1271       H  0.49585750  0.89071631  0.85531792     0.11700
H1272       H  0.45435076  0.88016421  0.83490758     0.12000
H1273       H  0.51699226  0.89369126  0.88600664     0.14700
H1274       H  0.49524608  0.84134519  0.90947724     0.13500
H1275       H  0.38045747  0.84627412  0.84888175     0.11200
H1276       H  0.42887718  0.84376176  0.81937235     0.13200
C1277       C  0.27804477  0.57056641  0.97753358     0.19200
C1278       C  0.27699536  0.57372808  0.99647517    -0.18800
C1279       C  0.24954945  0.57411140  0.00562055    -0.11100
C1280       C  0.22257327  0.57192711  0.99590904     0.21500
C1281       C  0.22360662  0.57009633  0.97691008    -0.20500
C1282       C  0.25104669  0.56914169  0.96779733    -0.11300
C1283       C  0.19314960  0.57178707  0.00528052    -0.15500
C1284       C  0.18914613  0.55787272  0.02126847    -0.29300
C1285       C  0.30743417  0.56974712  0.96813694    -0.03600
C1286       C  0.31206017  0.55303292  0.95321938    -0.40100
H1287       H  0.29746612  0.57543413  0.00422520     0.12700
H1288       H  0.24944896  0.57644674  0.02025828     0.12300
H1289       H  0.20313272  0.56886976  0.96913037     0.11700
H1290       H  0.25108630  0.56770808  0.95311834     0.12000
H1291       H  0.17413557  0.58179011  0.99843544     0.14700
H1292       H  0.20774111  0.54605648  0.02743667     0.13500
H1293       H  0.32575115  0.58257763  0.97385270     0.11200
H1294       H  0.29423772  0.53882444  0.94817669     0.13200
C1295       C  0.52229947  0.44637283  0.98878952     0.19200
C1296       C  0.50377670  0.43400121  0.97536475    -0.18800
C1297       C  0.48183518  0.45127248  0.96684019    -0.11100
C1298       C  0.47775736  0.48140143  0.97172384     0.21500
C1299       C  0.49622565  0.49369697  0.98519161    -0.20500
C1300       C  0.51812650  0.47646148  0.99369216    -0.11300
C1301       C  0.45570921  0.50141310  0.96276133    -0.15500
C1302       C  0.43442954  0.49267742  0.95093984    -0.29300
C1303       C  0.54407689  0.42657485  0.99816060    -0.03600
C1304       C  0.56645030  0.43629143  0.00889619    -0.40100
H1305       H  0.50630698  0.41081119  0.97142993     0.12700
H1306       H  0.46853721  0.44088096  0.95637212     0.12300
H1307       H  0.49362281  0.51682334  0.98925021     0.11700
H1308       H  0.53114448  0.48678712  0.00431891     0.12000
H1309       H  0.45773804  0.52509347  0.96580323     0.14700
H1310       H  0.43129252  0.46933387  0.94756596     0.13500
H1311       H  0.54068246  0.40265004  0.99667626     0.11200
H1312       H  0.57090453  0.45994212  0.01048199     0.13200
C1313       C  0.32355098  0.69564926  0.84156817     0.19200
C1314       C  0.31371312  0.69509700  0.85965840    -0.18800
C1315       C  0.31709880  0.66936813  0.87017256    -0.11100
C1316       C  0.33022932  0.64358099  0.86270471     0.21500
C1317       C  0.33783355  0.64334441  0.84422100    -0.20500
C1318       C  0.33467896  0.66919633  0.83372398    -0.11300
C1319       C  0.33822059  0.61756874  0.87417685    -0.15500
C1320       C  0.34836849  0.62139292  0.89117730    -0.29300
C1321       C  0.32232102  0.72431166  0.83149723    -0.03600
C1322       C  0.34142489  0.73129080  0.81801746    -0.40100
H1323       H  0.30441664  0.71497750  0.86587979     0.12700
H1324       H  0.31002475  0.66988993  0.88424108     0.12300
H1325       H  0.34748585  0.62354827  0.83810577     0.11700
H1326       H  0.34129780  0.66846750  0.81958869     0.12000
H1327       H  0.33938783  0.59560886  0.86791400     0.14700
H1328       H  0.34966009  0.64374278  0.89687347     0.13500
H1329       H  0.30644403  0.74101495  0.83617325     0.11200
H1330       H  0.35827736  0.71540009  0.81364816     0.13200
C1331       C  0.65195942  0.44836130  0.72991029     0.19200
C1332       C  0.67880222  0.46297901  0.73409496    -0.18800
C1333       C  0.67890930  0.48829409  0.74521155    -0.11100
C1334       C  0.65200566  0.49978939  0.75221235     0.21500
C1335       C  0.62508737  0.48545779  0.74781450    -0.20500
C1336       C  0.62502104  0.45984198  0.73688568    -0.11300
C1337       C  0.65130543  0.52742137  0.76339353    -0.15500
C1338       C  0.67373473  0.53514280  0.77457435    -0.29300
C1339       C  0.65280486  0.42259113  0.71721652    -0.03600
C1340       C  0.63237687  0.40050242  0.71705875    -0.40100
H1341       H  0.69978558  0.45486795  0.72864016     0.12700
H1342       H  0.69998340  0.49928949  0.74785877     0.12300
H1343       H  0.60404913  0.49414849  0.75283367     0.11700
H1344       H  0.60383012  0.44967653  0.73348818     0.12000
H1345       H  0.63132422  0.54118950  0.76290623     0.14700
H1346       H  0.69277219  0.52035474  0.77620348     0.13500
H1347       H  0.67155743  0.42148030  0.70783562     0.11200
H1348       H  0.61451424  0.40010067  0.72704679     0.13200
C1349       C  0.55980213  0.57680961  0.85307054     0.19200
C1350       C  0.53020663  0.57530535  0.84693431    -0.18800
C1351       C  0.50652057  0.57346413  0.85920397    -0.11100
C1352       C  0.51186338  0.57309266  0.87801712     0.21500
C1353       C  0.54144825  0.57468542  0.88423653    -0.20500
C1354       C  0.56528517  0.57636418  0.87189659    -0.11300
C1355       C  0.48681725  0.57232908  0.89128557    -0.15500
C1356       C  0.46084744  0.55860666  0.88753706    -0.29300
C1357       C  0.58361271  0.58198559  0.83937362    -0.03600
C1358       C  0.61305990  0.57783328  0.84213944    -0.40100
H1359       H  0.52531052  0.57617477  0.83253324     0.12700
H1360       H  0.48401008  0.57331152  0.85388323     0.12300
H1361       H  0.54609217  0.57481837  0.89867271     0.11700
H1362       H  0.58771697  0.57836465  0.87717624     0.12000
H1363       H  0.49009756  0.58248467  0.90454232     0.14700
H1364       H  0.45833950  0.54642715  0.87487473     0.13500
H1365       H  0.57630397  0.59052357  0.82628900     0.11200
H1366       H  0.62118285  0.56817763  0.85470948     0.13200
C1367       C  0.65004452  0.73026703  0.85235612     0.19200
C1368       C  0.63694987  0.75791248  0.84822460    -0.18800
C1369       C  0.63125031  0.77878895  0.86195486    -0.11100
C1370       C  0.63825956  0.77215722  0.88014614     0.21500
C1371       C  0.65124457  0.74451099  0.88426268    -0.20500
C1372       C  0.65720823  0.72381041  0.87055096    -0.11300
C1373       C  0.62973712  0.79220647  0.89531100    -0.15500
C1374       C  0.62721402  0.82197704  0.89357873    -0.29300
C1375       C  0.65357952  0.70756801  0.83780025    -0.03600
C1376       C  0.67410296  0.68570826  0.83865773    -0.40100
H1377       H  0.63070215  0.76316676  0.83437961     0.12700
H1378       H  0.62028563  0.79950600  0.85837326     0.12300
H1379       H  0.65629777  0.73868447  0.89820666     0.11700
H1380       H  0.66625795  0.70232651  0.87440877     0.12000
H1381       H  0.62504367  0.78189513  0.90837745     0.14700
H1382       H  0.63327306  0.83282810  0.88090955     0.13500
H1383       H  0.63831444  0.70841932  0.82635042     0.11200
H1384       H  0.69039122  0.68553405  0.84955953     0.13200
C1385       C  0.75868233  0.55574338  0.50126458     0.19200
C1386       C  0.72903810  0.55516503  0.50744923    -0.18800
C1387       C  0.70532845  0.55695867  0.49518291    -0.11100
C1388       C  0.71084410  0.55878171  0.47641133     0.21500
C1389       C  0.74046084  0.55862595  0.47016062    -0.20500
C1390       C  0.76422997  0.55744335  0.48246949    -0.11300
C1391       C  0.68595844  0.55939240  0.46316485    -0.15500
C1392       C  0.66052997  0.57447192  0.46639983    -0.29300
C1393       C  0.78316983  0.55268853  0.51467553    -0.03600
C1394       C  0.81038442  0.56486883  0.51237452    -0.40100
H1395       H  0.72421931  0.55334549  0.52183643     0.12700
H1396       H  0.68269248  0.55616292  0.50036206     0.12300
H1397       H  0.74518606  0.55953208  0.45573183     0.11700
H1398       H  0.78682687  0.55700951  0.47722982     0.12000
H1399       H  0.68895568  0.54786059  0.45029490     0.14700
H1400       H  0.65843694  0.58789882  0.47863356     0.13500
H1401       H  0.77827502  0.54063488  0.52714974     0.11200
H1402       H  0.81502621  0.57862412  0.50055332     0.13200
C1403       C  0.00351042  0.43603146  0.47922279     0.19200
C1404       C  0.98530388  0.42502509  0.49327404    -0.18800
C1405       C  0.96431821  0.44350897  0.50180442    -0.11100
C1406       C  0.96095718  0.47339221  0.49625777     0.21500
C1407       C  0.97889665  0.48423578  0.48208229    -0.20500
C1408       C  0.99975417  0.46579953  0.47354789    -0.11300
C1409       C  0.94083414  0.49476158  0.50561637    -0.15500
C1410       C  0.91787140  0.48710013  0.51651691    -0.29300
C1411       C  0.02499201  0.41543780  0.47024515    -0.03600
C1412       C  0.04801775  0.42458851  0.45981300    -0.40100
H1413       H  0.98756743  0.40211105  0.49781129     0.12700
H1414       H  0.95143207  0.43447319  0.51295723     0.12300
H1415       H  0.97675991  0.50717267  0.47755801     0.11700
H1416       H  0.01243754  0.47499641  0.46237107     0.12000
H1417       H  0.94579365  0.51832242  0.50366026     0.14700
H1418       H  0.91166490  0.46388958  0.51841475     0.13500
H1419       H  0.02123618  0.39161990  0.47202502     0.11200
H1420       H  0.05282863  0.44814585  0.45807770     0.13200
C1421       C  0.15396803  0.43213495  0.74239816     0.19200
C1422       C  0.17956972  0.44805757  0.73710701    -0.18800
C1423       C  0.17708553  0.47517374  0.72777136    -0.11100
C1424       C  0.14880743  0.48709347  0.72367403     0.21500
C1425       C  0.12322523  0.47158337  0.72940157    -0.20500
C1426       C  0.12570523  0.44432819  0.73857797    -0.11300
C1427       C  0.14510784  0.51581598  0.71378212    -0.15500
C1428       C  0.16511307  0.52609470  0.70162245    -0.29300
C1429       C  0.15761637  0.40383572  0.75273914    -0.03600
C1430       C  0.13691599  0.38197788  0.75324291    -0.40100
H1431       H  0.20160157  0.43945054  0.74019237     0.12700
H1432       H  0.19731715  0.48694945  0.72409933     0.12300
H1433       H  0.10119791  0.48050736  0.72665700     0.11700
H1434       H  0.10546765  0.43328268  0.74299034     0.12000
H1435       H  0.12426083  0.52788604  0.71567522     0.14700
H1436       H  0.18507435  0.51324879  0.69859832     0.13500
H1437       H  0.17853871  0.40067079  0.75995449     0.11200
H1438       H  0.11662192  0.38384661  0.74529187     0.13200
C1439       C  0.21953658  0.69230538  0.72289101     0.19200
C1440       C  0.20862966  0.71913913  0.73024210    -0.18800
C1441       C  0.22802055  0.73950498  0.73856152    -0.11100
C1442       C  0.25874185  0.73317150  0.73981353     0.21500
C1443       C  0.26948957  0.70617416  0.73267414    -0.20500
C1444       C  0.25016584  0.68583441  0.72448144    -0.11300
C1445       C  0.28056622  0.75365214  0.74846156    -0.15500
C1446       C  0.27343778  0.77478143  0.76074175    -0.29300
C1447       C  0.19853872  0.67167289  0.71358069    -0.03600
C1448       C  0.20751814  0.65219367  0.70076427    -0.40100
H1449       H  0.18511682  0.72460465  0.72924922     0.12700
H1450       H  0.21891191  0.76025637  0.74365788     0.12300
H1451       H  0.29298163  0.70057865  0.73363800     0.11700
H1452       H  0.25938324  0.66496652  0.71963968     0.12000
H1453       H  0.30403874  0.74933711  0.74568804     0.14700
H1454       H  0.25037438  0.77859179  0.76463140     0.13500
H1455       H  0.17484648  0.67382858  0.71655683     0.11200
H1456       H  0.23081004  0.65112582  0.69674521     0.13200
C1457       C  0.04181959  0.55016544  0.62445221     0.19200
C1458       C  0.01289533  0.54081745  0.62898688    -0.18800
C1459       C  0.99075016  0.53899623  0.61569783    -0.11100
C1460       C  0.99713871  0.54679622  0.59756154     0.21500
C1461       C  0.02627880  0.55550166  0.59298281    -0.20500
C1462       C  0.04844512  0.55713395  0.60624934    -0.11300
C1463       C  0.97354612  0.54908273  0.58350938    -0.15500
C1464       C  0.94686440  0.53553402  0.58481671    -0.29300
C1465       C  0.06335713  0.55637448  0.63920254    -0.03600
C1466       C  0.09305433  0.55610021  0.63663815    -0.40100
H1467       H  0.00716998  0.53585879  0.64297255     0.12700
H1468       H  0.96843628  0.53299564  0.61996262     0.12300
H1469       H  0.03168606  0.56200525  0.57918521     0.11700
H1470       H  0.07023248  0.56541846  0.60234800     0.12000
H1471       H  0.97817431  0.56305335  0.57175611     0.14700
H1472       H  0.94218377  0.52016320  0.59584269     0.13500
H1473       H  0.05432259  0.56329314  0.65226105     0.11200
H1474       H  0.10239247  0.54784669  0.62397221     0.13200
C1475       C  0.83371208  0.99310751  0.74979892     0.19200
C1476       C  0.86041740  0.97956900  0.74408500    -0.18800
C1477       C  0.85995532  0.95326028  0.73383974    -0.11100
C1478       C  0.83263209  0.94008725  0.72891782     0.21500
C1479       C  0.80592027  0.95356174  0.73466852    -0.20500
C1480       C  0.80638389  0.97969841  0.74509567    -0.11300
C1481       C  0.83115809  0.91395332  0.71651760    -0.15500
C1482       C  0.85286299  0.89323630  0.71515986    -0.29300
C1483       C  0.83530061  0.02220302  0.75946448    -0.03600
C1484       C  0.81369678  0.03271942  0.77049965    -0.40100
H1485       H  0.88174723  0.98965244  0.74733405     0.12700
H1486       H  0.88096506  0.94401497  0.72921098     0.12300
H1487       H  0.78458815  0.94407292  0.73082652     0.11700
H1488       H  0.78532689  0.98987346  0.74881540     0.12000
H1489       H  0.81122190  0.91163603  0.70823130     0.14700
H1490       H  0.87200605  0.89395407  0.72417508     0.13500
H1491       H  0.85561243  0.03521755  0.75774503     0.11200
H1492       H  0.79411466  0.01929603  0.77348671     0.13200
C1493       C  0.74374162  0.69387682  0.74824895     0.19200
C1494       C  0.73085686  0.71169057  0.73463194    -0.18800
C1495       C  0.74819828  0.73175872  0.72456244    -0.11100
C1496       C  0.77896026  0.73459939  0.72800487     0.21500
C1497       C  0.79187634  0.71661472  0.74149552    -0.20500
C1498       C  0.77456191  0.69660556  0.75156972    -0.11300
C1499       C  0.79878254  0.75513474  0.71764875    -0.15500
C1500       C  0.78940213  0.77735686  0.70667937    -0.29300
C1501       C  0.72386271  0.67403831  0.75911390    -0.03600
C1502       C  0.73330856  0.65363175  0.77130907    -0.40100
H1503       H  0.70718228  0.71011724  0.73176964     0.12700
H1504       H  0.73735918  0.74460789  0.71404498     0.12300
H1505       H  0.81553455  0.71824221  0.74440149     0.11700
H1506       H  0.78554365  0.68388143  0.76207231     0.12000
H1507       H  0.82266764  0.75174117  0.71928604     0.14700
H1508       H  0.76583513  0.78198098  0.70489563     0.13500
H1509       H  0.69996657  0.67705604  0.75727788     0.11200
H1510       H  0.75686729  0.64953010  0.77346998     0.13200
C1511       C  0.85531977  0.66617833  0.59779373     0.19200
C1512       C  0.85717965  0.69648248  0.59305078    -0.18800
C1513       C  0.85765767  0.71858975  0.60643606    -0.11100
C1514       C  0.85657740  0.71077615  0.62492413     0.21500
C1515       C  0.85484153  0.68049874  0.62971124    -0.20500
C1516       C  0.85400474  0.65835723  0.61629676    -0.11300
C1517       C  0.85848399  0.73370173  0.63942011    -0.15500
C1518       C  0.84661498  0.76106098  0.63748439    -0.29300
C1519       C  0.85824515  0.64348366  0.58320591    -0.03600
C1520       C  0.84918714  0.61489494  0.58471411    -0.40100
H1521       H  0.85881341  0.70305517  0.57891730     0.12700
H1522       H  0.85985625  0.74168515  0.60228748     0.12300
H1523       H  0.85432895  0.67396696  0.64387881     0.11700
H1524       H  0.85354107  0.63521250  0.62050468     0.12000
H1525       H  0.86863163  0.72747530  0.65227556     0.14700
H1526       H  0.83428475  0.76659671  0.62524674     0.13500
H1527       H  0.86938103  0.65057271  0.57079643     0.11200
H1528       H  0.83672758  0.60752452  0.59655205     0.13200
C1529       C  0.27222168  0.87015312  0.47185576     0.19200
C1530       C  0.26909243  0.86822713  0.49078602    -0.18800
C1531       C  0.24078166  0.86671977  0.49881896    -0.11100
C1532       C  0.21484414  0.86666494  0.48804098     0.21500
C1533       C  0.21794994  0.86817951  0.46907857    -0.20500
C1534       C  0.24631403  0.87017399  0.46104277    -0.11300
C1535       C  0.18452554  0.86372334  0.49624824    -0.15500
C1536       C  0.17780605  0.87514769  0.51265891    -0.29300
C1537       C  0.30277899  0.86992007  0.46383875    -0.03600
C1538       C  0.30976534  0.88309127  0.44794259    -0.40100
H1539       H  0.28867479  0.86770397  0.49940054     0.12700
H1540       H  0.23933097  0.86469793  0.51344327     0.12300
H1541       H  0.19836801  0.86778488  0.46046455     0.11700
H1542       H  0.24791394  0.87077396  0.44637746     0.12000
H1543       H  0.16714492  0.85284398  0.48836997     0.14700
H1544       H  0.19449717  0.88805753  0.51991740     0.13500
H1545       H  0.32033736  0.85902475  0.47156851     0.11200
H1546       H  0.29294138  0.89575224  0.44064407     0.13200
C1547       C  0.96833208  0.97794568  0.46874186     0.19200
C1548       C  0.98447987  0.98808962  0.48386081    -0.18800
C1549       C  0.00564442  0.96984067  0.49227362    -0.11100
C1550       C  0.01146133  0.94096459  0.48558272     0.21500
C1551       C  0.99516264  0.93071155  0.47053635    -0.20500
C1552       C  0.97394169  0.94899024  0.46211507    -0.11300
C1553       C  0.03286666  0.92023918  0.49451572    -0.15500
C1554       C  0.05408604  0.92889181  0.50637146    -0.29300
C1555       C  0.94744709  0.99909082  0.45975428    -0.03600
C1556       C  0.92657435  0.99143085  0.44741147    -0.40100
H1557       H  0.98065028  0.01029641  0.48924604     0.12700
H1558       H  0.01685746  0.97839754  0.50417060     0.12300
H1559       H  0.99901824  0.90849312  0.46518191     0.11700
H1560       H  0.96256293  0.94047242  0.45026330     0.12000
H1561       H  0.03035035  0.89657092  0.49158069     0.14700
H1562       H  0.05758666  0.95232617  0.50939019     0.13500
H1563       H  0.94997447  0.02254024  0.46328033     0.11200
H1564       H  0.92276351  0.96824246  0.44385909     0.13200
C1565       C  0.12964368  0.75339811  0.58717722     0.19200
C1566       C  0.10916545  0.73062390  0.59124568    -0.18800
C1567       C  0.11613956  0.70860108  0.60399623    -0.11100
C1568       C  0.14406563  0.70857533  0.61266745     0.21500
C1569       C  0.16489497  0.73087567  0.60828784    -0.20500
C1570       C  0.15765440  0.75335252  0.59580673    -0.11300
C1571       C  0.15228035  0.68456586  0.62558535    -0.15500
C1572       C  0.13264338  0.67345568  0.63765914    -0.29300
C1573       C  0.12132204  0.77613897  0.57342883    -0.03600
C1574       C  0.13064856  0.80470640  0.57401868    -0.40100
H1575       H  0.08759948  0.72998661  0.58460652     0.12700
H1576       H  0.09995334  0.69119819  0.60675575     0.12300
H1577       H  0.18671143  0.73098168  0.61462298     0.11700
H1578       H  0.17419963  0.77019306  0.59261907     0.12000
H1579       H  0.17512690  0.67636113  0.62542899     0.14700
H1580       H  0.11052338  0.68327994  0.63880085     0.13500
H1581       H  0.10509274  0.76962306  0.56320085     0.11200
H1582       H  0.14493495  0.81225390  0.58500189     0.13200
C1583       C  0.93211726  0.87777618  0.61397131     0.19200
C1584       C  0.93067283  0.86528930  0.59649628    -0.18800
C1585       C  0.95536170  0.86663627  0.58480500    -0.11100
C1586       C  0.98182429  0.88086913  0.59039005     0.21500
C1587       C  0.98250068  0.89490022  0.60743557    -0.20500
C1588       C  0.95799867  0.89332114  0.61913993    -0.11300
C1589       C  0.00925688  0.88187194  0.57904699    -0.15500
C1590       C  0.01595826  0.86211809  0.56582732    -0.29300
C1591       C  0.90718542  0.87262297  0.62690783    -0.03600
C1592       C  0.91224900  0.86783914  0.64466529    -0.40100
H1593       H  0.91079427  0.85352526  0.59213762     0.12700
H1594       H  0.95363176  0.85646686  0.57152025     0.12300
H1595       H  0.00239312  0.90651023  0.61192696     0.11700
H1596       H  0.95949415  0.90398189  0.63230766     0.12000
H1597       H  0.02561671  0.89885977  0.58253925     0.14700
H1598       H  0.00055681  0.84434074  0.56230739     0.13500
H1599       H  0.88506144  0.86835803  0.62142910     0.11200
H1600       H  0.93489211  0.86883899  0.64989165     0.13200
loop_ 
_geom_bond_atom_site_label_1 
_geom_bond_atom_site_label_2 
_geom_bond_distance 
_geom_bond_site_symmetry_2 
_ccdc_geom_bond_type 
O1           Cu9   2.037       .  S
O1           C11   1.282       .  A
O2           Cu9   2.025       .  S
O2           C12   1.279       .  A
O3           Cu9   2.001       .  S
O3           C13   1.277       .  A
O4           Cu9   2.007       .  S
O4           C14   1.278       .  A
O5          Cu10   2.017       .  S
O5           C14   1.278       .  A
O6          Cu10   2.015       .  S
O6           C13   1.278       .  A
O7          Cu10   1.996       .  S
O7           C12   1.277       .  A
O8          Cu10   1.998       .  S
O8           C11   1.275       .  A
Cu9         Cu10   2.373       .  S
C11        C1536   1.479       .  S
C12        C1590   1.479       .  S
C13        C1554   1.476       .  S
C14        C1574   1.478       .  S
O15         Cu23   1.992       .  S
O15          C25   1.276       .  A
O16         Cu23   1.993       .  S
O16          C26   1.275       .  A
O17         Cu23   2.018       .  S
O17          C27   1.278       .  A
O18         Cu23   2.021       .  S
O18          C28   1.280       .  A
O19         Cu24   1.995       .  S
O19          C28   1.275       .  A
O20         Cu24   2.007       .  S
O20          C27   1.278       .  A
O21         Cu24   2.022       .  S
O21          C26   1.280       .  A
O22         Cu24   2.024       .  S
O22          C25   1.279       .  A
Cu23        Cu24   2.375       .  S
C25        C1500   1.478       .  S
C26        C1592   1.470       .  S
C27        C1482   1.478       .  S
C28        C1518   1.472       .  S
O29         Cu37   2.004       .  S
O29          C39   1.278       .  A
O30         Cu37   2.014       .  S
O30          C40   1.279       .  A
O31         Cu37   2.011       .  S
O31          C41   1.277       .  A
O32         Cu37   2.014       .  S
O32          C42   1.279       .  A
O33         Cu38   2.011       .  S
O33          C42   1.277       .  A
O34         Cu38   2.013       .  S
O34          C41   1.279       .  A
O35         Cu38   1.997       .  S
O35          C40   1.276       .  A
O36         Cu38   2.003       .  S
O36          C39   1.276       .  A
Cu37        Cu38   2.375       .  S
C39        C1466   1.471       .  S
C40        C1448   1.472       .  S
C41        C1572   1.475       .  S
C42        C1428   1.477       .  S
O43         Cu51   2.014       .  S
O43          C53   1.278       .  A
O44         Cu51   2.010       .  S
O44          C54   1.279       .  A
O45         Cu51   1.985       .  S
O45          C55   1.276       .  A
O46         Cu51   1.993       .  S
O46          C56   1.277       .  A
O47         Cu52   2.023       .  S
O47          C56   1.279       .  A
O48         Cu52   2.024       .  S
O48          C55   1.279       .  A
O49         Cu52   1.998       .  S
O49          C54   1.275       .  A
O50         Cu52   2.007       .  S
O50          C53   1.278       .  A
Cu51        Cu52   2.374       .  S
C53        C1394   1.477       .  S
C54        C1464   1.471       .  S
C55        C1410   1.477       .  S
C56        C1520   1.477       .  S
O57         Cu65   2.020       .  S
O57          C67   1.280       .  A
O58         Cu65   2.018       .  S
O58          C68   1.280       .  A
O59         Cu65   1.996       .  S
O59          C69   1.277       .  A
O60         Cu65   1.989       .  S
O60          C70   1.277       .  A
O61         Cu66   2.027       .  S
O61          C70   1.279       .  A
O62         Cu66   2.021       .  S
O62          C69   1.279       .  A
O63         Cu66   1.997       .  S
O63          C68   1.275       .  A
O64         Cu66   2.004       .  S
O64          C67   1.276       .  A
Cu65        Cu66   2.374       .  S
C67        C1338   1.476       .  S
C68        C1376   1.473       .  S
C69        C1502   1.477       .  S
C70        C1358   1.479       .  S
O71         Cu79   1.992       .  S
O71          C81   1.275       .  A
O72         Cu79   1.989       .  S
O72          C82   1.276       .  A
O73         Cu79   2.026       .  S
O73          C83   1.280       .  A
O74         Cu79   2.024       .  S
O74          C84   1.280       .  A
O75         Cu80   2.001       .  S
O75          C84   1.276       .  A
O76         Cu80   1.994       .  S
O76          C83   1.275       .  A
O77         Cu80   2.027       .  S
O77          C82   1.280       .  A
O78         Cu80   2.022       .  S
O78          C81   1.280       .  A
Cu79        Cu80   2.375       .  S
C81        C1320   1.471       .  S
C82        C1302   1.479       .  S
C83        C1356   1.473       .  S
C84        C1286   1.476       .  S
O85         Cu93   2.011       .  S
O85          C95   1.277       .  A
O86         Cu93   2.012       .  S
O86          C96   1.279       .  A
O87         Cu93   2.006       .  S
O87          C97   1.277       .  A
O88         Cu93   1.999       .  S
O88          C98   1.278       .  A
O89         Cu94   2.015       .  S
O89          C98   1.278       .  A
O90         Cu94   2.015       .  S
O90          C97   1.279       .  A
O91         Cu94   2.011       .  S
O91          C96   1.277       .  A
O92         Cu94   2.005       .  S
O92          C95   1.278       .  A
Cu93        Cu94   2.374       .  S
C95        C1322   1.474       .  S
C96        C1248   1.476       .  S
C97        C1268   1.475       .  S
C98        C1446   1.476       .  S
O99        Cu107   2.004       .  S
O99         C109   1.277       .  A
O100       Cu107   2.007       .  S
O100        C110   1.279       .  A
O101       Cu107   2.020       .  S
O101        C111   1.280       .  A
O102       Cu107   2.015       .  S
O102        C112   1.278       .  A
O103       Cu108   2.006       .  S
O103        C112   1.278       .  A
O104       Cu108   2.008       .  S
O104        C111   1.277       .  A
O105       Cu108   2.005       .  S
O105        C110   1.276       .  A
O106       Cu108   2.007       .  S
O106        C109   1.277       .  A
Cu107      Cu108   2.374       .  S
C109       C1230   1.471       .  S
C110       C1374   1.474       .  S
C111       C1212   1.477       .  S
C112       C1266   1.477       .  S
O113       Cu121   2.035       .  S
O113        C123   1.281       .  A
O114       Cu121   2.033       .  S
O114        C124   1.281       .  A
O115       Cu121   1.995       .  S
O115        C125   1.276       .  A
O116       Cu121   1.995       .  S
O116        C126   1.277       .  A
O117       Cu122   2.014       .  S
O117        C126   1.277       .  A
O118       Cu122   2.020       .  S
O118        C125   1.279       .  A
O119       Cu122   1.996       .  S
O119        C124   1.275       .  A
O120       Cu122   2.000       .  S
O120        C123   1.276       .  A
Cu121      Cu122   2.374       .  S
C123       C1160   1.479       .  S
C124       C1194   1.476       .  S
C125       C1304   1.477       .  S
C126       C1178   1.474       .  S
O127       Cu135   1.990       .  S
O127        C137   1.276       .  A
O128       Cu135   1.986       .  S
O128        C138   1.275       .  A
O129       Cu135   2.024       .  S
O129        C139   1.281       .  A
O130       Cu135   2.028       .  S
O130        C140   1.281       .  A
O131       Cu136   1.999       .  S
O131        C140   1.275       .  A
O132       Cu136   1.987       .  S
O132        C139   1.273       .  A
O133       Cu136   2.029       .  S
O133        C138   1.280       .  A
O134       Cu136   2.033       .  S
O134        C137   1.280       .  A
Cu135      Cu136   2.374       .  S
C137       C1196   1.481       .  S
C138       C1124   1.478       .  S
C139       C1142   1.470       .  S
C140       C1104   1.476       .  S
O141       Cu149   1.999       .  S
O141        C151   1.278       .  A
O142       Cu149   1.999       .  S
O142        C152   1.278       .  A
O143       Cu149   2.010       .  S
O143        C153   1.279       .  A
O144       Cu149   2.014       .  S
O144        C154   1.277       .  A
O145       Cu150   2.003       .  S
O145        C154   1.278       .  A
O146       Cu150   2.002       .  S
O146        C153   1.276       .  A
O147       Cu150   2.011       .  S
O147        C152   1.277       .  A
O148       Cu150   2.010       .  S
O148        C151   1.277       .  A
Cu149      Cu150   2.375       .  S
C151       C1088   1.473       .  S
C152       C1070   1.474       .  S
C153       C1176   1.472       .  S
C154       C1050   1.476       .  S
O155       Cu163   2.026   1_565  S
O155        C165   1.279       .  A
O156       Cu163   2.021       .  S
O156        C166   1.278       .  A
O157       Cu163   2.007       .  S
O157        C167   1.277       .  A
O158       Cu163   1.999       .  S
O158        C168   1.275       .  A
O159       Cu164   2.011       .  S
O159        C168   1.279       .  A
O160       Cu164   2.009       .  S
O160        C167   1.279       .  A
O161       Cu164   1.986       .  S
O161        C166   1.276       .  A
O162       Cu164   1.984       .  S
O162        C165   1.276   1_545  A
Cu163      Cu164   2.374       .  S
C165       C1232   1.477       .  S
C166       C1140   1.474       .  S
C167       C1032   1.475       .  S
C168       C1086   1.471       .  S
O169       Cu177   2.011       .  S
O169        C179   1.279       .  A
O170       Cu177   2.010       .  S
O170        C180   1.277       .  A
O171       Cu177   2.011       .  S
O171        C181   1.279       .  A
O172       Cu177   2.014       .  S
O172        C182   1.279       .  A
O173       Cu178   2.020       .  S
O173        C182   1.278       .  A
O174       Cu178   2.012       .  S
O174        C181   1.278       .  A
O175       Cu178   1.999       .  S
O175        C180   1.277       .  A
O176       Cu178   1.999       .  S
O176        C179   1.276       .  A
Cu177      Cu178   2.374       .  S
C179        C996   1.472       .  S
C180       C1068   1.473       .  S
C181       C1014   1.477       .  S
C182        C978   1.482       .  S
O183       Cu191   1.988       .  S
O183        C193   1.274       .  A
O184       Cu191   1.991       .  S
O184        C194   1.274       .  A
O185       Cu191   2.023       .  S
O185        C195   1.280       .  A
O186       Cu191   2.015       .  S
O186        C196   1.278       .  A
O187       Cu192   1.998       .  S
O187        C196   1.277       .  A
O188       Cu192   1.991       .  S
O188        C195   1.274       .  A
O189       Cu192   2.024       .  S
O189        C194   1.280       .  A
O190       Cu192   2.023       .  S
O190        C193   1.280       .  A
Cu191      Cu192   2.375       .  S
C193        C998   1.468       .  S
C194        C942   1.471       .  S
C195        C960   1.471       .  S
C196       C1412   1.474       .  S
O197       Cu205   2.018       .  S
O197        C207   1.278       .  A
O198       Cu205   2.011       .  S
O198        C208   1.277       .  A
O199       Cu205   2.007       .  S
O199        C209   1.278       .  A
O200       Cu205   2.012       .  S
O200        C210   1.277       .  A
O201       Cu206   2.018       .  S
O201        C210   1.279       .  A
O202       Cu206   2.012       .  S
O202        C209   1.277       .  A
O203       Cu206   2.005       .  S
O203        C208   1.278       .  A
O204       Cu206   2.001       .  S
O204        C207   1.278       .  A
Cu205      Cu206   2.374       .  S
C207        C924   1.478       .  S
C208       C1122   1.475       .  S
C209        C962   1.476       .  S
C210        C906   1.479       .  S
O211       Cu219   1.992       .  S
O211        C221   1.274       .  A
O212       Cu219   2.002       .  S
O212        C222   1.276       .  A
O213       Cu219   2.027       .  S
O213        C223   1.280       .  A
O214       Cu219   2.027       .  S
O214        C224   1.280       .  A
O215       Cu220   1.991       .  S
O215        C224   1.276       .  A
O216       Cu220   1.994       .  S
O216        C223   1.275       .  A
O217       Cu220   2.030       .  S
O217        C222   1.281       .  A
O218       Cu220   2.031       .  S
O218        C221   1.281       .  A
Cu219      Cu220   2.374       .  S
C221        C926   1.474       .  S
C222        C888   1.478       .  S
C223       C1016   1.474       .  S
C224       C1556   1.479   1_545  S
O225       Cu233   2.025       .  S
O225        C235   1.279       .  A
O226       Cu233   2.025       .  S
O226        C236   1.280       .  A
O227       Cu233   2.002       .  S
O227        C237   1.277       .  A
O228       Cu233   1.993       .  S
O228        C238   1.274       .  A
O229       Cu234   2.026       .  S
O229        C238   1.281       .  A
O230       Cu234   2.022       .  S
O230        C237   1.279       .  A
O231       Cu234   1.988       .  S
O231        C236   1.274       .  A
O232       Cu234   1.988       .  S
O232        C235   1.276       .  A
Cu233      Cu234   2.375       .  S
C235        C836   1.478       .  S
C236        C852   1.469       .  S
C237       C1340   1.479       .  S
C238        C870   1.473       .  S
O239       Cu247   2.003       .  S
O239        C249   1.276       .  A
O240       Cu247   1.998       .  S
O240        C250   1.277       .  A
O241       Cu247   2.017       .  S
O241        C251   1.278       .  A
O242       Cu247   2.016       .  S
O242        C252   1.278       .  A
O243       Cu248   1.992       .  S
O243        C252   1.277       .  A
O244       Cu248   1.991       .  S
O244        C251   1.276       .  A
O245       Cu248   2.015       .  S
O245        C250   1.278       .  A
O246       Cu248   2.013       .  S
O246        C249   1.279       .  A
Cu247      Cu248   2.375       .  S
C249        C944   1.473       .  S
C250        C854   1.475       .  S
C251        C798   1.474       .  S
C252        C816   1.474       .  S
O253       Cu261   2.029       .  S
O253        C263   1.279       .  A
O254       Cu261   2.026       .  S
O254        C264   1.279       .  A
O255       Cu261   2.007       .  S
O255        C265   1.277       .  A
O256       Cu261   2.002       .  S
O256        C266   1.276       .  A
O257       Cu262   2.012       .  S
O257        C266   1.279       .  A
O258       Cu262   2.015       .  S
O258        C265   1.279       .  A
O259       Cu262   1.986       .  S
O259        C264   1.276       .  A
O260       Cu262   1.986       .  S
O260        C263   1.276       .  A
Cu261      Cu262   2.373       .  S
C263        C762   1.480       .  S
C264        C782   1.477       .  S
C265       C1250   1.476       .  S
C266        C818   1.473       .  S
O267       Cu275   2.010       .  S
O267        C277   1.279       .  A
O268       Cu275   2.012       .  S
O268        C278   1.279       .  A
O269       Cu275   2.005       .  S
O269        C279   1.276       .  A
O270       Cu275   2.018       .  S
O270        C280   1.279       .  A
O271       Cu276   2.015       .  S
O271        C280   1.278       .  A
O272       Cu276   2.010       .  S
O272        C279   1.278       .  A
O273       Cu276   2.005       .  S
O273        C278   1.277       .  A
O274       Cu276   2.009       .  S
O274        C277   1.277       .  A
Cu275      Cu276   2.374       .  S
C277        C872   1.476       .  S
C278        C744   1.476       .  S
C279        C780   1.471       .  S
C280        C890   1.481       .  S
O281       Cu289   2.004       .  S
O281        C291   1.278       .  A
O282       Cu289   2.004       .  S
O282        C292   1.277       .  A
O283       Cu289   2.019       .  S
O283        C293   1.280       .  A
O284       Cu289   2.022       .  S
O284        C294   1.279       .  A
O285       Cu290   2.004       .  S
O285        C294   1.277       .  A
O286       Cu290   1.998       .  S
O286        C293   1.275       .  A
O287       Cu290   2.015       .  S
O287        C292   1.279       .  A
O288       Cu290   2.021       .  S
O288        C291   1.279       .  A
Cu289      Cu290   2.374       .  S
C291        C710   1.480       .  S
C292        C764   1.475       .  S
C293        C728   1.474       .  S
C294       C1430   1.479       .  S
O295       Cu303   2.015       .  S
O295        C305   1.277       .  A
O296       Cu303   2.018       .  S
O296        C306   1.279       .  A
O297       Cu303   1.996       .  S
O297        C307   1.275       .  A
O298       Cu303   1.994       .  S
O298        C308   1.275       .  A
O299       Cu304   2.040       .  S
O299        C308   1.282       .  A
O300       Cu304   2.035       .  S
O300        C307   1.281       .  A
O301       Cu304   2.003       .  S
O301        C306   1.277       .  A
O302       Cu304   1.992       .  S
O302        C305   1.277       .  A
Cu303      Cu304   2.374       .  S
C305        C690   1.473       .  S
C306        C674   1.477       .  S
C307        C708   1.477       .  S
C308       C1158   1.479       .  S
O309       Cu317   2.017       .  S
O309        C319   1.278       .  A
O310       Cu317   2.013       .  S
O310        C320   1.279       .  A
O311       Cu317   2.009       .  S
O311        C321   1.277       .  A
O312       Cu317   2.013       .  S
O312        C322   1.277       .  A
O313       Cu318   2.001       .  S
O313        C322   1.278       .  A
O314       Cu318   2.007       .  S
O314        C321   1.278       .  A
O315       Cu318   1.994       .  S
O315        C320   1.275       .  A
O316       Cu318   2.004       .  S
O316        C319   1.278       .  A
Cu317      Cu318   2.375       .  S
C319       C1484   1.477       .  S
C320        C692   1.469       .  S
C321        C834   1.474       .  S
C322        C656   1.476       .  S
O323       Cu331   2.020       .  S
O323        C333   1.280       .  A
O324       Cu331   2.016       .  S
O324        C334   1.279       .  A
O325       Cu331   1.998       .  S
O325        C335   1.275       .  A
O326       Cu331   1.993       .  S
O326        C336   1.277       .  A
O327       Cu332   2.027       .  S
O327        C336   1.280       .  A
O328       Cu332   2.019       .  S
O328        C335   1.280       .  A
O329       Cu332   2.003       .  S
O329        C334   1.276       .  A
O330       Cu332   1.994       .  S
O330        C333   1.275       .  A
Cu331      Cu332   2.375       .  S
C333        C654   1.471       .  S
C334       C1034   1.473       .  S
C335        C726   1.472       .  S
C336        C638   1.480   1_545  S
O337       Cu345   1.999       .  S
O337        C347   1.277       .  A
O338       Cu345   1.999       .  S
O338        C348   1.275       .  A
O339       Cu345   2.016       .  S
O339        C349   1.278       .  A
O340       Cu345   2.015       .  S
O340        C350   1.280       .  A
O341       Cu346   2.009       .  S
O341        C350   1.277       .  A
O342       Cu346   2.014       .  S
O342        C349   1.279       .  A
O343       Cu346   2.009       .  S
O343        C348   1.279       .  A
O344       Cu346   2.012       .  S
O344        C347   1.277       .  A
Cu345      Cu346   2.375       .  S
C347        C582   1.474       .  S
C348        C600   1.470       .  S
C349       C1106   1.480       .  S
C350        C618   1.477       .  S
O351       Cu359   2.008       .  S
O351        C361   1.277       .  A
O352       Cu359   2.009       .  S
O352        C362   1.277       .  A
O353       Cu359   1.993       .  S
O353        C363   1.275       .  A
O354       Cu359   2.000       .  S
O354        C364   1.278       .  A
O355       Cu360   2.009       .  S
O355        C364   1.277       .  A
O356       Cu360   2.012       .  S
O356        C363   1.279       .  A
O357       Cu360   2.004       .  S
O357        C362   1.278       .  A
O358       Cu360   2.014       .  S
O358        C361   1.279       .  A
Cu359      Cu360   2.376       .  S
C361       C1392   1.475       .  S
C362        C602   1.473       .  S
C363        C800   1.470       .  S
C364        C564   1.473       .  S
O365       Cu373   2.018       .  S
O365        C375   1.279       .  A
O366       Cu373   2.006       .  S
O366        C376   1.277       .  A
O367       Cu373   2.016       .  S
O367        C377   1.280       .  A
O368       Cu373   2.018       .  S
O368        C378   1.279       .  A
O369       Cu374   2.005       .  S
O369        C378   1.277       .  A
O370       Cu374   2.006       .  S
O370        C377   1.276       .  A
O371       Cu374   2.018       .  S
O371        C376   1.279       .  A
O372       Cu374   2.018       .  S
O372        C375   1.278       .  A
Cu373      Cu374   2.373       .  S
C375       C1538   1.482       .  S
C376        C546   1.475       .  S
C377        C746   1.477       .  S
C378        C620   1.477       .  S
O379       Cu387   1.995       .  S
O379        C389   1.275       .  A
O380       Cu387   1.994       .  S
O380        C390   1.275       .  A
O381       Cu387   2.022       .  S
O381        C391   1.279       .  A
O382       Cu387   2.026       .  S
O382        C392   1.279       .  A
O383       Cu388   1.989       .  S
O383        C392   1.277       .  A
O384       Cu388   1.995       .  S
O384        C391   1.277       .  A
O385       Cu388   2.016       .  S
O385        C390   1.280       .  A
O386       Cu388   2.022       .  S
O386        C389   1.280       .  A
Cu387      Cu388   2.374       .  S
C389       C1052   1.472       .  S
C390        C566   1.470       .  S
C391        C528   1.477       .  S
C392        C548   1.477       .  S
O393       Cu401   2.015       .  S
O393        C403   1.279       .  A
O394       Cu401   2.010       .  S
O394        C404   1.277       .  A
O395       Cu401   2.019       .  S
O395        C405   1.279       .  A
O396       Cu401   2.021       .  S
O396        C406   1.280       .  A
O397       Cu402   2.010       .  S
O397        C406   1.277       .  A
O398       Cu402   2.010       .  S
O398        C405   1.277       .  A
O399       Cu402   2.002       .  S
O399        C404   1.278       .  A
O400       Cu402   2.002       .  S
O400        C403   1.276       .  A
Cu401      Cu402   2.374       .  S
C403        C494   1.474       .  S
C404        C584   1.474       .  S
C405        C510   1.479       .  S
C406        C908   1.479       .  S
O407       Cu415   2.005       .  S
O407        C417   1.276       .  A
O408       Cu415   1.998       .  S
O408        C418   1.277       .  A
O409       Cu415   2.020       .  S
O409        C419   1.279       .  A
O410       Cu415   2.015       .  S
O410        C420   1.278       .  A
O411       Cu416   2.003       .  S
O411        C420   1.278       .  A
O412       Cu416   2.001       .  S
O412        C419   1.277       .  A
O413       Cu416   2.017       .  S
O413        C418   1.278       .  A
O414       Cu416   2.021       .  S
O414        C417   1.280       .  A
Cu415      Cu416   2.374       .  S
C417       C1214   1.476       .  S
C418        C492   1.476       .  S
C419        C636   1.478       .  S
C420        C474   1.477       .  S
O421       Cu429   1.991       .  S
O421        C431   1.274       .  A
O422       Cu429   1.986       .  S
O422        C432   1.276       .  A
O423       Cu429   2.033       .  S
O423        C433   1.281       .  A
O424       Cu429   2.031       .  S
O424        C434   1.281       .  A
O425       Cu430   1.998       .  S
O425        C434   1.275       .  A
O426       Cu430   1.984       .  S
O426        C433   1.274       .  A
O427       Cu430   2.035       .  S
O427        C432   1.281       .  A
O428       Cu430   2.032       .  S
O428        C431   1.281       .  A
Cu429      Cu430   2.374       .  S
C431        C512   1.474       .  S
C432        C672   1.481       .  S
C433        C456   1.471       .  S
C434       C1284   1.477       .  S
O435       Cu443   2.021       .  S
O435        C445   1.279       .  A
O436       Cu443   2.027       .  S
O436        C446   1.279       .  A
O437       Cu443   2.005       .  S
O437        C447   1.276       .  A
O438       Cu443   1.996       .  S
O438        C448   1.275       .  A
O439       Cu444   2.025       .  S
O439        C448   1.280       .  A
O440       Cu444   2.029       .  S
O440        C447   1.280       .  A
O441       Cu444   1.986       .  S
O441        C446   1.276       .  A
O442       Cu444   1.994       .  S
O442        C445   1.277       .  A
Cu443      Cu444   2.373       .  S
C445        C530   1.477       .  S
C446        C458   1.479       .  S
C447        C980   1.478       .  S
C448        C476   1.474       .  S
C449        C457   1.483       .  S
C449        C450   1.401       .  A
C449        C454   1.409       .  A
C450        C451   1.392       .  A
C450        H459   1.084       .  S
C451        C452   1.406       .  A
C451        H460   1.082   1_655  S
C452        C455   1.486   1_655  S
C452        C453   1.404       .  A
C453        C454   1.403       .  A
C453        H461   1.083       .  S
C454        H462   1.081       .  S
C455        H463   1.087       .  S
C455        C456   1.343       .  D
C456        H464   1.086       .  S
C457        H465   1.087       .  S
C457        C458   1.347       .  D
C458        H466   1.085       .  S
C467        C475   1.487       .  S
C467        C468   1.403       .  A
C467        C472   1.408       .  A
C468        C469   1.400       .  A
C468        H477   1.083       .  S
C469        C470   1.408       .  A
C469        H478   1.082       .  S
C470        C473   1.483       .  S
C470        C471   1.402       .  A
C471        C472   1.397       .  A
C471        H479   1.084       .  S
C472        H480   1.082       .  S
C473        H481   1.087       .  S
C473        C474   1.345       .  D
C474        H482   1.086       .  S
C475        H483   1.087       .  S
C475        C476   1.344       .  D
C476        H484   1.085       .  S
C485        C493   1.484       .  S
C485        C486   1.403       .  A
C485        C490   1.406       .  A
C486        C487   1.399       .  A
C486        H495   1.083       .  S
C487        C488   1.406   1_455  A
C487        H496   1.082       .  S
C488        C491   1.483       .  S
C488        C489   1.403       .  A
C489        C490   1.397   1_655  A
C489        H497   1.083       .  S
C490        H498   1.082       .  S
C491        H499   1.087       .  S
C491        C492   1.347       .  D
C492        H500   1.085       .  S
C493        H501   1.087       .  S
C493        C494   1.345       .  D
C494        H502   1.085       .  S
C503        C511   1.488       .  S
C503        C504   1.403       .  A
C503        C508   1.407       .  A
C504        C505   1.400       .  A
C504        H513   1.083       .  S
C505        C506   1.409       .  A
C505        H514   1.081       .  S
C506        C509   1.490       .  S
C506        C507   1.404       .  A
C507        C508   1.398       .  A
C507        H515   1.083       .  S
C508        H516   1.082       .  S
C509        H517   1.087       .  S
C509        C510   1.347       .  D
C510        H518   1.084       .  S
C511        H519   1.087       .  S
C511        C512   1.344       .  D
C512        H520   1.086       .  S
C521        C529   1.488       .  S
C521        C522   1.405       .  A
C521        C526   1.407       .  A
C522        C523   1.398       .  A
C522        H531   1.083       .  S
C523        C524   1.406       .  A
C523        H532   1.081       .  S
C524        C527   1.486       .  S
C524        C525   1.404       .  A
C525        C526   1.398       .  A
C525        H533   1.083       .  S
C526        H534   1.080       .  S
C527        H535   1.087       .  S
C527        C528   1.348       .  D
C528        H536   1.084       .  S
C529        H537   1.087       .  S
C529        C530   1.349       .  D
C530        H538   1.083       .  S
C539        C547   1.480       .  S
C539        C540   1.402       .  A
C539        C544   1.406       .  A
C540        C541   1.394       .  A
C540        H549   1.084       .  S
C541        C542   1.406       .  A
C541        H550   1.082       .  S
C542        C545   1.485       .  S
C542        C543   1.405       .  A
C543        C544   1.403       .  A
C543        H551   1.083       .  S
C544        H552   1.082       .  S
C545        H553   1.087       .  S
C545        C546   1.345       .  D
C546        H554   1.086       .  S
C547        H555   1.088       .  S
C547        C548   1.346       .  D
C548        H556   1.086       .  S
C557        C565   1.480       .  S
C557        C558   1.401       .  A
C557        C562   1.407       .  A
C558        C559   1.398       .  A
C558        H567   1.083       .  S
C559        C560   1.408       .  A
C559        H568   1.082       .  S
C560        C563   1.480       .  S
C560        C561   1.401       .  A
C561        C562   1.395       .  A
C561        H569   1.084       .  S
C562        H570   1.083       .  S
C563        H571   1.087       .  S
C563        C564   1.344       .  D
C564        H572   1.086       .  S
C565        H573   1.087       .  S
C565        C566   1.342       .  D
C566        H574   1.087       .  S
C575        C583   1.482       .  S
C575        C576   1.402       .  A
C575        C580   1.405       .  A
C576        C577   1.396       .  A
C576        H585   1.084       .  S
C577        C578   1.407       .  A
C577        H586   1.080       .  S
C578        C581   1.486       .  S
C578        C579   1.405       .  A
C579        C580   1.398       .  A
C579        H587   1.083       .  S
C580        H588   1.082       .  S
C581        H589   1.087       .  S
C581        C582   1.347       .  D
C582        H590   1.083       .  S
C583        H591   1.087       .  S
C583        C584   1.346       .  D
C584        H592   1.085       .  S
C593        C601   1.481       .  S
C593        C594   1.402       .  A
C593        C598   1.406       .  A
C594        C595   1.397       .  A
C594        H603   1.083       .  S
C595        C596   1.406       .  A
C595        H604   1.082       .  S
C596        C599   1.480       .  S
C596        C597   1.402       .  A
C597        C598   1.397       .  A
C597        H605   1.083       .  S
C598        H606   1.082       .  S
C599        H607   1.087       .  S
C599        C600   1.344       .  D
C600        H608   1.086       .  S
C601        H609   1.087       .  S
C601        C602   1.345       .  D
C602        H610   1.086       .  S
C611        C619   1.490       .  S
C611        C612   1.405       .  A
C611        C616   1.409       .  A
C612        C613   1.401       .  A
C612        H621   1.083       .  S
C613        C614   1.408       .  A
C613        H622   1.082       .  S
C614        C617   1.486       .  S
C614        C615   1.402       .  A
C615        C616   1.397       .  A
C615        H623   1.084       .  S
C616        H624   1.081       .  S
C617        H625   1.087       .  S
C617        C618   1.345       .  D
C618        H626   1.085       .  S
C619        H627   1.087       .  S
C619        C620   1.347       .  D
C620        H628   1.084       .  S
C629        C637   1.488       .  S
C629        C630   1.405   1_455  A
C629        C634   1.407       .  A
C630        C631   1.397       .  A
C630        H639   1.083   1_565  S
C631        C632   1.406       .  A
C631        H640   1.081       .  S
C632        C635   1.489       .  S
C632        C633   1.406       .  A
C633        C634   1.400   1_655  A
C633        H641   1.083       .  S
C634        H642   1.081       .  S
C635        H643   1.087       .  S
C635        C636   1.349   1_556  D
C636        H644   1.084       .  S
C637        H645   1.087   1_565  S
C637        C638   1.349       .  D
C638        H646   1.084       .  S
C647        C655   1.484       .  S
C647        C648   1.402       .  A
C647        C652   1.409       .  A
C648        C649   1.395       .  A
C648        H657   1.084       .  S
C649        C650   1.406       .  A
C649        H658   1.082   1_655  S
C650        C653   1.483   1_655  S
C650        C651   1.402       .  A
C651        C652   1.400       .  A
C651        H659   1.083       .  S
C652        H660   1.081       .  S
C653        H661   1.087       .  S
C653        C654   1.343       .  D
C654        H662   1.086       .  S
C655        H663   1.087       .  S
C655        C656   1.346       .  D
C656        H664   1.085       .  S
C665        C673   1.489       .  S
C665        C666   1.407   1_655  A
C665        C670   1.405       .  A
C666        C667   1.402       .  A
C666        H675   1.083       .  S
C667        C668   1.406   1_556  A
C667        H676   1.081   1_556  S
C668        C671   1.486       .  S
C668        C669   1.404   1_454  A
C669        C670   1.395       .  A
C669        H677   1.084       .  S
C670        H678   1.081       .  S
C671        H679   1.087       .  S
C671        C672   1.350       .  D
C672        H680   1.084       .  S
C673        H681   1.087       .  S
C673        C674   1.349       .  D
C674        H682   1.084       .  S
C683        C691   1.478       .  S
C683        C684   1.403       .  A
C683        C688   1.405       .  A
C684        C685   1.401       .  A
C684        H693   1.083       .  S
C685        C686   1.406       .  A
C685        H694   1.083       .  S
C686        C689   1.474       .  S
C686        C687   1.400       .  A
C687        C688   1.392       .  A
C687        H695   1.084       .  S
C688        H696   1.083       .  S
C689        H697   1.087       .  S
C689        C690   1.343       .  D
C690        H698   1.086       .  S
C691        H699   1.087       .  S
C691        C692   1.342       .  D
C692        H700   1.087       .  S
C701        C709   1.485       .  S
C701        C702   1.401       .  A
C701        C706   1.408       .  A
C702        C703   1.396       .  A
C702        H711   1.084       .  S
C703        C704   1.407       .  A
C703        H712   1.082   1_455  S
C704        C707   1.489   1_455  S
C704        C705   1.404       .  A
C705        C706   1.404       .  A
C705        H713   1.083       .  S
C706        H714   1.082       .  S
C707        H715   1.086       .  S
C707        C708   1.345       .  D
C708        H716   1.087       .  S
C709        H717   1.087       .  S
C709        C710   1.346       .  D
C710        H718   1.086       .  S
C719        C727   1.487       .  S
C719        C720   1.403       .  A
C719        C724   1.409       .  A
C720        C721   1.398       .  A
C720        H729   1.083       .  S
C721        C722   1.403       .  A
C721        H730   1.083       .  S
C722        C725   1.484       .  S
C722        C723   1.406       .  A
C723        C724   1.398       .  A
C723        H731   1.082       .  S
C724        H732   1.081       .  S
C725        H733   1.087       .  S
C725        C726   1.345       .  D
C726        H734   1.086       .  S
C727        H735   1.087       .  S
C727        C728   1.344       .  D
C728        H736   1.084       .  S
C737        C745   1.490       .  S
C737        C738   1.404       .  A
C737        C742   1.408       .  A
C738        C739   1.398       .  A
C738        H747   1.083       .  S
C739        C740   1.408       .  A
C739        H748   1.080       .  S
C740        C743   1.491   1_565  S
C740        C741   1.405   1_565  A
C741        C742   1.399   1_545  A
C741        H749   1.083       .  S
C742        H750   1.080       .  S
C743        H751   1.087       .  S
C743        C744   1.348       .  D
C744        H752   1.083   1_545  S
C745        H753   1.087       .  S
C745        C746   1.347       .  D
C746        H754   1.084       .  S
C755        C763   1.486       .  S
C755        C756   1.406       .  A
C755        C760   1.405       .  A
C756        C757   1.403       .  A
C756        H765   1.083       .  S
C757        C758   1.408       .  A
C757        H766   1.081       .  S
C758        C761   1.484       .  S
C758        C759   1.402       .  A
C759        C760   1.393       .  A
C759        H767   1.084       .  S
C760        H768   1.081       .  S
C761        H769   1.087       .  S
C761        C762   1.348       .  D
C762        H770   1.084       .  S
C763        H771   1.087       .  S
C763        C764   1.348       .  D
C764        H772   1.085       .  S
C773        C781   1.479       .  S
C773        C774   1.402       .  A
C773        C778   1.406       .  A
C774        C775   1.392       .  A
C774        H783   1.084       .  S
C775        C776   1.404       .  A
C775        H784   1.083       .  S
C776        C779   1.480       .  S
C776        C777   1.404       .  A
C777        C778   1.402       .  A
C777        H785   1.083       .  S
C778        H786   1.082       .  S
C779        H787   1.087       .  S
C779        C780   1.344       .  D
C780        H788   1.087       .  S
C781        H789   1.087       .  S
C781        C782   1.346       .  D
C782        H790   1.086       .  S
C791        C799   1.486       .  S
C791        C792   1.404       .  A
C791        C796   1.408       .  A
C792        C793   1.397       .  A
C792        H801   1.083       .  S
C793        C794   1.402       .  A
C793        H802   1.083       .  S
C794        C797   1.481       .  S
C794        C795   1.406       .  A
C795        C796   1.396       .  A
C795        H803   1.082       .  S
C796        H804   1.080       .  S
C797        H805   1.087       .  S
C797        C798   1.347       .  D
C798        H806   1.085       .  S
C799        H807   1.087       .  S
C799        C800   1.344       .  D
C800        H808   1.083       .  S
C809        C817   1.485       .  S
C809        C810   1.403       .  A
C809        C814   1.408       .  A
C810        C811   1.398       .  A
C810        H819   1.083       .  S
C811        C812   1.406       .  A
C811        H820   1.081       .  S
C812        C815   1.481       .  S
C812        C813   1.402       .  A
C813        C814   1.396       .  A
C813        H821   1.084       .  S
C814        H822   1.081       .  S
C815        H823   1.087       .  S
C815        C816   1.345       .  D
C816        H824   1.085       .  S
C817        H825   1.087       .  S
C817        C818   1.344       .  D
C818        H826   1.085       .  S
C827        C835   1.485       .  S
C827        C828   1.405       .  A
C827        C832   1.406       .  A
C828        C829   1.397       .  A
C828        H837   1.084       .  S
C829        C830   1.405       .  A
C829        H838   1.081       .  S
C830        C833   1.485       .  S
C830        C831   1.404       .  A
C831        C832   1.399       .  A
C831        H839   1.083       .  S
C832        H840   1.081       .  S
C833        H841   1.087       .  S
C833        C834   1.347       .  D
C834        H842   1.085       .  S
C835        H843   1.087       .  S
C835        C836   1.349       .  D
C836        H844   1.084       .  S
C845        C853   1.483       .  S
C845        C846   1.403       .  A
C845        C850   1.407       .  A
C846        C847   1.396       .  A
C846        H855   1.083       .  S
C847        C848   1.406       .  A
C847        H856   1.083       .  S
C848        C851   1.483       .  S
C848        C849   1.403       .  A
C849        C850   1.399       .  A
C849        H857   1.083       .  S
C850        H858   1.081       .  S
C851        H859   1.087       .  S
C851        C852   1.343       .  D
C852        H860   1.086       .  S
C853        H861   1.087       .  S
C853        C854   1.346       .  D
C854        H862   1.085       .  S
C863        C871   1.486       .  S
C863        C864   1.402       .  A
C863        C868   1.409       .  A
C864        C865   1.397       .  A
C864        H873   1.084       .  S
C865        C866   1.407       .  A
C865        H874   1.082       .  S
C866        C869   1.485       .  S
C866        C867   1.402       .  A
C867        C868   1.400       .  A
C867        H875   1.083       .  S
C868        H876   1.081       .  S
C869        H877   1.087       .  S
C869        C870   1.343       .  D
C870        H878   1.086       .  S
C871        H879   1.087       .  S
C871        C872   1.345       .  D
C872        H880   1.085       .  S
C881        C889   1.487       .  S
C881        C882   1.402       .  A
C881        C886   1.408       .  A
C882        C883   1.398       .  A
C882        H891   1.083       .  S
C883        C884   1.407       .  A
C883        H892   1.083       .  S
C884        C887   1.489       .  S
C884        C885   1.404       .  A
C885        C886   1.403       .  A
C885        H893   1.083       .  S
C886        H894   1.082       .  S
C887        H895   1.087       .  S
C887        C888   1.346       .  D
C888        H896   1.086       .  S
C889        H897   1.087       .  S
C889        C890   1.346       .  D
C890        H898   1.086       .  S
C899        C907   1.490       .  S
C899        C900   1.405       .  A
C899        C904   1.408       .  A
C900        C901   1.401       .  A
C900        H909   1.083       .  S
C901        C902   1.407       .  A
C901        H910   1.082       .  S
C902        C905   1.487   1_565  S
C902        C903   1.403       .  A
C903        C904   1.399       .  A
C903        H911   1.083       .  S
C904        H912   1.082       .  S
C905        H913   1.087       .  S
C905        C906   1.346       .  D
C906        H914   1.086       .  S
C907        H915   1.087       .  S
C907        C908   1.347       .  D
C908        H916   1.085       .  S
C917        C925   1.487   1_455  S
C917        C918   1.403       .  A
C917        C922   1.408   1_455  A
C918        C919   1.401       .  A
C918        H927   1.083       .  S
C919        C920   1.408       .  A
C919        H928   1.081       .  S
C920        C923   1.485       .  S
C920        C921   1.402       .  A
C921        C922   1.396   1_455  A
C921        H929   1.084       .  S
C922        H930   1.082       .  S
C923        H931   1.087       .  S
C923        C924   1.346       .  D
C924        H932   1.085       .  S
C925        H933   1.087       .  S
C925        C926   1.344       .  D
C926        H934   1.086       .  S
C935        C943   1.480       .  S
C935        C936   1.400       .  A
C935        C940   1.408       .  A
C936        C937   1.396       .  A
C936        H945   1.083       .  S
C937        C938   1.407       .  A
C937        H946   1.083       .  S
C938        C941   1.481       .  S
C938        C939   1.401       .  A
C939        C940   1.400       .  A
C939        H947   1.083       .  S
C940        H948   1.083       .  S
C941        H949   1.086       .  S
C941        C942   1.342       .  D
C942        H950   1.087       .  S
C943        H951   1.087       .  S
C943        C944   1.343       .  D
C944        H952   1.087       .  S
C953        C961   1.483       .  S
C953        C954   1.402       .  A
C953        C958   1.408       .  A
C954        C955   1.396       .  A
C954        H963   1.083       .  S
C955        C956   1.406       .  A
C955        H964   1.083       .  S
C956        C959   1.483       .  S
C956        C957   1.402       .  A
C957        C958   1.399       .  A
C957        H965   1.083       .  S
C958        H966   1.082       .  S
C959        H967   1.087       .  S
C959        C960   1.343       .  D
C960        H968   1.086       .  S
C961        H969   1.087       .  S
C961        C962   1.346       .  D
C962        H970   1.085       .  S
C971        C979   1.489       .  S
C971        C972   1.405       .  A
C971        C976   1.407       .  A
C972        C973   1.403       .  A
C972        H981   1.083       .  S
C973        C974   1.408       .  A
C973        H982   1.082       .  S
C974        C977   1.489       .  S
C974        C975   1.403       .  A
C975        C976   1.398       .  A
C975        H983   1.083       .  S
C976        H984   1.082       .  S
C977        H985   1.087       .  S
C977        C978   1.347       .  D
C978        H986   1.085       .  S
C979        H987   1.087       .  S
C979        C980   1.346       .  D
C980        H988   1.086       .  S
C989        C997   1.478   1_655  S
C989        C990   1.400       .  A
C989        C994   1.406       .  A
C990        C991   1.397       .  A
C990        H999   1.083   1_655  S
C991        C992   1.408       .  A
C991       H1000   1.082       .  S
C992        C995   1.481       .  S
C992        C993   1.402       .  A
C993        C994   1.398       .  A
C993       H1001   1.083       .  S
C994       H1002   1.083       .  S
C995       H1003   1.087       .  S
C995        C996   1.343       .  D
C996       H1004   1.086       .  S
C997       H1005   1.087       .  S
C997        C998   1.340       .  D
C998       H1006   1.087       .  S
C1007      C1015   1.488       .  S
C1007      C1008   1.403       .  A
C1007      C1012   1.408       .  A
C1008      C1009   1.400       .  A
C1008      H1017   1.083       .  S
C1009      C1010   1.408       .  A
C1009      H1018   1.082       .  S
C1010      C1013   1.487       .  S
C1010      C1011   1.403       .  A
C1011      C1012   1.398       .  A
C1011      H1019   1.083       .  S
C1012      H1020   1.082       .  S
C1013      H1021   1.087       .  S
C1013      C1014   1.347       .  D
C1014      H1022   1.085       .  S
C1015      H1023   1.087       .  S
C1015      C1016   1.345       .  D
C1016      H1024   1.085       .  S
C1025      C1033   1.481       .  S
C1025      C1026   1.402       .  A
C1025      C1030   1.406       .  A
C1026      C1027   1.399   1_556  A
C1026      H1035   1.083   1_556  S
C1027      C1028   1.408   1_554  A
C1027      H1036   1.082       .  S
C1028      C1031   1.482   1_556  S
C1028      C1029   1.402       .  A
C1029      C1030   1.397       .  A
C1029      H1037   1.083       .  S
C1030      H1038   1.083       .  S
C1031      H1039   1.087       .  S
C1031      C1032   1.344       .  D
C1032      H1040   1.086       .  S
C1033      H1041   1.087       .  S
C1033      C1034   1.343       .  D
C1034      H1042   1.087       .  S
C1043      C1051   1.484       .  S
C1043      C1044   1.403       .  A
C1043      C1048   1.407       .  A
C1044      C1045   1.401       .  A
C1044      H1053   1.083       .  S
C1045      C1046   1.407       .  A
C1045      H1054   1.082       .  S
C1046      C1049   1.482   1_565  S
C1046      C1047   1.402       .  A
C1047      C1048   1.395       .  A
C1047      H1055   1.083       .  S
C1048      H1056   1.082       .  S
C1049      H1057   1.087       .  S
C1049      C1050   1.345       .  D
C1050      H1058   1.086       .  S
C1051      H1059   1.087       .  S
C1051      C1052   1.344       .  D
C1052      H1060   1.086       .  S
C1061      C1069   1.486       .  S
C1061      C1062   1.403       .  A
C1061      C1066   1.407       .  A
C1062      C1063   1.397       .  A
C1062      H1071   1.083       .  S
C1063      C1064   1.408       .  A
C1063      H1072   1.080       .  S
C1064      C1067   1.486       .  S
C1064      C1065   1.404       .  A
C1065      C1066   1.397       .  A
C1065      H1073   1.083       .  S
C1066      H1074   1.080       .  S
C1067      H1075   1.087       .  S
C1067      C1068   1.347       .  D
C1068      H1076   1.083       .  S
C1069      H1077   1.087       .  S
C1069      C1070   1.347       .  D
C1070      H1078   1.083       .  S
C1079      C1087   1.481       .  S
C1079      C1080   1.402       .  A
C1079      C1084   1.407       .  A
C1080      C1081   1.396       .  A
C1080      H1089   1.084       .  S
C1081      C1082   1.407       .  A
C1081      H1090   1.082       .  S
C1082      C1085   1.481       .  S
C1082      C1083   1.402       .  A
C1083      C1084   1.398       .  A
C1083      H1091   1.083       .  S
C1084      H1092   1.082       .  S
C1085      H1093   1.087       .  S
C1085      C1086   1.342       .  D
C1086      H1094   1.086       .  S
C1087      H1095   1.087       .  S
C1087      C1088   1.344       .  D
C1088      H1096   1.085       .  S
C1097      C1105   1.487       .  S
C1097      C1098   1.403       .  A
C1097      C1102   1.408       .  A
C1098      C1099   1.399       .  A
C1098      H1107   1.083       .  S
C1099      C1100   1.407       .  A
C1099      H1108   1.083       .  S
C1100      C1103   1.487       .  S
C1100      C1101   1.403       .  A
C1101      C1102   1.401       .  A
C1101      H1109   1.083       .  S
C1102      H1110   1.082       .  S
C1103      H1111   1.087       .  S
C1103      C1104   1.344       .  D
C1104      H1112   1.086       .  S
C1105      H1113   1.087       .  S
C1105      C1106   1.346       .  D
C1106      H1114   1.086       .  S
C1115      C1123   1.485       .  S
C1115      C1116   1.405       .  A
C1115      C1120   1.406       .  A
C1116      C1117   1.397       .  A
C1116      H1125   1.084       .  S
C1117      C1118   1.406       .  A
C1117      H1126   1.081       .  S
C1118      C1121   1.486       .  S
C1118      C1119   1.404       .  A
C1119      C1120   1.399       .  A
C1119      H1127   1.083       .  S
C1120      H1128   1.081       .  S
C1121      H1129   1.087       .  S
C1121      C1122   1.347       .  D
C1122      H1130   1.084       .  S
C1123      H1131   1.087       .  S
C1123      C1124   1.349       .  D
C1124      H1132   1.084       .  S
C1133      C1141   1.484       .  S
C1133      C1134   1.403       .  A
C1133      C1138   1.407       .  A
C1134      C1135   1.399       .  A
C1134      H1143   1.083       .  S
C1135      C1136   1.408       .  A
C1135      H1144   1.081       .  S
C1136      C1139   1.481       .  S
C1136      C1137   1.402       .  A
C1137      C1138   1.394       .  A
C1137      H1145   1.084       .  S
C1138      H1146   1.081       .  S
C1139      H1147   1.088       .  S
C1139      C1140   1.345       .  D
C1140      H1148   1.085       .  S
C1141      H1149   1.087       .  S
C1141      C1142   1.342       .  D
C1142      H1150   1.085       .  S
C1151      C1159   1.487   1_556  S
C1151      C1152   1.402       .  A
C1151      C1156   1.408   1_556  A
C1152      C1153   1.401       .  A
C1152      H1161   1.083       .  S
C1153      C1154   1.408       .  A
C1153      H1162   1.083       .  S
C1154      C1157   1.487       .  S
C1154      C1155   1.402       .  A
C1155      C1156   1.401   1_556  A
C1155      H1163   1.083   1_556  S
C1156      H1164   1.083       .  S
C1157      H1165   1.086       .  S
C1157      C1158   1.344       .  D
C1158      H1166   1.087       .  S
C1159      H1167   1.086   1_554  S
C1159      C1160   1.344       .  D
C1160      H1168   1.087       .  S
C1169      C1177   1.482       .  S
C1169      C1170   1.402       .  A
C1169      C1174   1.407       .  A
C1170      C1171   1.395       .  A
C1170      H1179   1.084       .  S
C1171      C1172   1.407       .  A
C1171      H1180   1.081       .  S
C1172      C1175   1.483       .  S
C1172      C1173   1.403       .  A
C1173      C1174   1.398       .  A
C1173      H1181   1.084       .  S
C1174      H1182   1.081       .  S
C1175      H1183   1.087       .  S
C1175      C1176   1.344       .  D
C1176      H1184   1.085       .  S
C1177      H1185   1.087       .  S
C1177      C1178   1.345       .  D
C1178      H1186   1.085       .  S
C1187      C1195   1.486       .  S
C1187      C1188   1.403       .  A
C1187      C1192   1.408       .  A
C1188      C1189   1.395       .  A
C1188      H1197   1.084       .  S
C1189      C1190   1.407       .  A
C1189      H1198   1.082       .  S
C1190      C1193   1.489       .  S
C1190      C1191   1.405       .  A
C1191      C1192   1.403       .  A
C1191      H1199   1.083       .  S
C1192      H1200   1.082       .  S
C1193      H1201   1.087       .  S
C1193      C1194   1.345       .  D
C1194      H1202   1.086       .  S
C1195      H1203   1.087       .  S
C1195      C1196   1.348       .  D
C1196      H1204   1.085       .  S
C1205      C1213   1.484   1_556  S
C1205      C1206   1.402       .  A
C1205      C1210   1.407   1_556  A
C1206      C1207   1.400       .  A
C1206      H1215   1.083       .  S
C1207      C1208   1.407       .  A
C1207      H1216   1.083       .  S
C1208      C1211   1.485       .  S
C1208      C1209   1.402   1_556  A
C1209      C1210   1.399       .  A
C1209      H1217   1.083       .  S
C1210      H1218   1.083       .  S
C1211      H1219   1.087       .  S
C1211      C1212   1.344       .  D
C1212      H1220   1.086       .  S
C1213      H1221   1.087   1_554  S
C1213      C1214   1.344       .  D
C1214      H1222   1.086       .  S
C1223      C1231   1.482       .  S
C1223      C1224   1.402   1_554  A
C1223      C1228   1.408       .  A
C1224      C1225   1.393       .  A
C1224      H1233   1.084       .  S
C1225      C1226   1.406       .  A
C1225      H1234   1.082       .  S
C1226      C1229   1.484       .  S
C1226      C1227   1.404   1_556  A
C1227      C1228   1.401       .  A
C1227      H1235   1.083       .  S
C1228      H1236   1.081       .  S
C1229      H1237   1.087       .  S
C1229      C1230   1.347       .  D
C1230      H1238   1.085       .  S
C1231      H1239   1.087   1_565  S
C1231      C1232   1.347       .  D
C1232      H1240   1.084       .  S
C1241      C1249   1.486   1_565  S
C1241      C1242   1.404       .  A
C1241      C1246   1.408       .  A
C1242      C1243   1.400       .  A
C1242      H1251   1.083   1_565  S
C1243      C1244   1.406       .  A
C1243      H1252   1.083       .  S
C1244      C1247   1.483       .  S
C1244      C1245   1.402       .  A
C1245      C1246   1.398       .  A
C1245      H1253   1.083       .  S
C1246      H1254   1.082       .  S
C1247      H1255   1.087       .  S
C1247      C1248   1.344       .  D
C1248      H1256   1.086       .  S
C1249      H1257   1.087       .  S
C1249      C1250   1.346       .  D
C1250      H1258   1.086   1_545  S
C1259      C1267   1.485       .  S
C1259      C1260   1.404       .  A
C1259      C1264   1.406       .  A
C1260      C1261   1.400       .  A
C1260      H1269   1.083       .  S
C1261      C1262   1.408       .  A
C1261      H1270   1.082       .  S
C1262      C1265   1.486       .  S
C1262      C1263   1.403       .  A
C1263      C1264   1.397       .  A
C1263      H1271   1.083       .  S
C1264      H1272   1.082       .  S
C1265      H1273   1.087       .  S
C1265      C1266   1.347       .  D
C1266      H1274   1.085       .  S
C1267      H1275   1.087       .  S
C1267      C1268   1.346       .  D
C1268      H1276   1.086       .  S
C1277      C1285   1.486       .  S
C1277      C1278   1.402       .  A
C1277      C1282   1.408       .  A
C1278      C1279   1.400   1_556  A
C1278      H1287   1.083   1_556  S
C1279      C1280   1.408   1_554  A
C1279      H1288   1.083       .  S
C1280      C1283   1.486   1_556  S
C1280      C1281   1.402       .  A
C1281      C1282   1.399       .  A
C1281      H1289   1.083       .  S
C1282      H1290   1.083       .  S
C1283      H1291   1.087   1_554  S
C1283      C1284   1.343       .  D
C1284      H1292   1.086       .  S
C1285      H1293   1.087       .  S
C1285      C1286   1.344       .  D
C1286      H1294   1.086       .  S
C1295      C1303   1.488       .  S
C1295      C1296   1.405       .  A
C1295      C1300   1.407       .  A
C1296      C1297   1.400       .  A
C1296      H1305   1.083       .  S
C1297      C1298   1.407       .  A
C1297      H1306   1.080       .  S
C1298      C1301   1.488       .  S
C1298      C1299   1.405       .  A
C1299      C1300   1.397       .  A
C1299      H1307   1.083       .  S
C1300      H1308   1.080   1_556  S
C1301      H1309   1.087       .  S
C1301      C1302   1.350       .  D
C1302      H1310   1.083       .  S
C1303      H1311   1.087       .  S
C1303      C1304   1.349   1_556  D
C1304      H1312   1.084       .  S
C1313      C1321   1.483       .  S
C1313      C1314   1.402       .  A
C1313      C1318   1.408       .  A
C1314      C1315   1.396       .  A
C1314      H1323   1.083       .  S
C1315      C1316   1.406       .  A
C1315      H1324   1.083       .  S
C1316      C1319   1.483       .  S
C1316      C1317   1.402       .  A
C1317      C1318   1.399       .  A
C1317      H1325   1.083       .  S
C1318      H1326   1.082       .  S
C1319      H1327   1.087       .  S
C1319      C1320   1.343       .  D
C1320      H1328   1.086       .  S
C1321      H1329   1.087       .  S
C1321      C1322   1.346       .  D
C1322      H1330   1.085       .  S
C1331      C1339   1.485       .  S
C1331      C1332   1.403       .  A
C1331      C1336   1.407       .  A
C1332      C1333   1.398       .  A
C1332      H1341   1.083       .  S
C1333      C1334   1.407       .  A
C1333      H1342   1.082       .  S
C1334      C1337   1.486       .  S
C1334      C1335   1.404       .  A
C1335      C1336   1.401       .  A
C1335      H1343   1.083       .  S
C1336      H1344   1.082       .  S
C1337      H1345   1.087       .  S
C1337      C1338   1.345       .  D
C1338      H1346   1.086       .  S
C1339      H1347   1.087       .  S
C1339      C1340   1.347       .  D
C1340      H1348   1.085       .  S
C1349      C1357   1.484       .  S
C1349      C1350   1.402       .  A
C1349      C1354   1.408       .  A
C1350      C1351   1.394       .  A
C1350      H1359   1.084       .  S
C1351      C1352   1.406       .  A
C1351      H1360   1.082       .  S
C1352      C1355   1.486       .  S
C1352      C1353   1.404       .  A
C1353      C1354   1.402       .  A
C1353      H1361   1.083       .  S
C1354      H1362   1.081       .  S
C1355      H1363   1.087       .  S
C1355      C1356   1.344       .  D
C1356      H1364   1.086       .  S
C1357      H1365   1.087       .  S
C1357      C1358   1.347       .  D
C1358      H1366   1.085       .  S
C1367      C1375   1.485       .  S
C1367      C1368   1.403       .  A
C1367      C1372   1.408       .  A
C1368      C1369   1.399       .  A
C1368      H1377   1.083       .  S
C1369      C1370   1.408       .  A
C1369      H1378   1.082       .  S
C1370      C1373   1.482       .  S
C1370      C1371   1.401       .  A
C1371      C1372   1.395       .  A
C1371      H1379   1.083       .  S
C1372      H1380   1.082       .  S
C1373      H1381   1.087       .  S
C1373      C1374   1.343       .  D
C1374      H1382   1.086       .  S
C1375      H1383   1.087       .  S
C1375      C1376   1.344       .  D
C1376      H1384   1.085       .  S
C1385      C1393   1.483       .  S
C1385      C1386   1.402       .  A
C1385      C1390   1.407       .  A
C1386      C1387   1.397       .  A
C1386      H1395   1.084       .  S
C1387      C1388   1.406       .  A
C1387      H1396   1.083       .  S
C1388      C1391   1.482       .  S
C1388      C1389   1.403       .  A
C1389      C1390   1.400       .  A
C1389      H1397   1.083       .  S
C1390      H1398   1.082       .  S
C1391      H1399   1.087       .  S
C1391      C1392   1.344       .  D
C1392      H1400   1.086       .  S
C1393      H1401   1.087       .  S
C1393      C1394   1.345       .  D
C1394      H1402   1.086       .  S
C1403      C1411   1.486       .  S
C1403      C1404   1.405   1_455  A
C1403      C1408   1.407   1_455  A
C1404      C1405   1.400       .  A
C1404      H1413   1.083       .  S
C1405      C1406   1.407       .  A
C1405      H1414   1.081       .  S
C1406      C1409   1.483       .  S
C1406      C1407   1.402       .  A
C1407      C1408   1.395       .  A
C1407      H1415   1.084       .  S
C1408      H1416   1.080   1_655  S
C1409      H1417   1.087       .  S
C1409      C1410   1.347       .  D
C1410      H1418   1.084       .  S
C1411      H1419   1.087       .  S
C1411      C1412   1.348       .  D
C1412      H1420   1.084       .  S
C1421      C1429   1.487       .  S
C1421      C1422   1.404       .  A
C1421      C1426   1.407       .  A
C1422      C1423   1.399       .  A
C1422      H1431   1.083       .  S
C1423      C1424   1.407       .  A
C1423      H1432   1.082       .  S
C1424      C1427   1.487       .  S
C1424      C1425   1.404       .  A
C1425      C1426   1.399       .  A
C1425      H1433   1.083       .  S
C1426      H1434   1.082       .  S
C1427      H1435   1.087       .  S
C1427      C1428   1.346       .  D
C1428      H1436   1.085       .  S
C1429      H1437   1.087       .  S
C1429      C1430   1.348       .  D
C1430      H1438   1.085       .  S
C1439      C1447   1.486       .  S
C1439      C1440   1.404       .  A
C1439      C1444   1.407       .  A
C1440      C1441   1.401       .  A
C1440      H1449   1.083       .  S
C1441      C1442   1.407       .  A
C1441      H1450   1.081       .  S
C1442      C1445   1.484       .  S
C1442      C1443   1.402       .  A
C1443      C1444   1.394       .  A
C1443      H1451   1.084       .  S
C1444      H1452   1.081       .  S
C1445      H1453   1.087       .  S
C1445      C1446   1.346       .  D
C1446      H1454   1.084       .  S
C1447      H1455   1.087       .  S
C1447      C1448   1.345       .  D
C1448      H1456   1.084       .  S
C1457      C1465   1.480       .  S
C1457      C1458   1.401       .  A
C1457      C1462   1.407       .  A
C1458      C1459   1.397   1_455  A
C1458      H1467   1.084       .  S
C1459      C1460   1.409       .  A
C1459      H1468   1.081       .  S
C1460      C1463   1.483       .  S
C1460      C1461   1.402   1_655  A
C1461      C1462   1.396       .  A
C1461      H1469   1.084       .  S
C1462      H1470   1.082       .  S
C1463      H1471   1.087       .  S
C1463      C1464   1.343       .  D
C1464      H1472   1.084       .  S
C1465      H1473   1.087       .  S
C1465      C1466   1.343       .  D
C1466      H1474   1.086       .  S
C1475      C1483   1.486   1_565  S
C1475      C1476   1.404       .  A
C1475      C1480   1.407       .  A
C1476      C1477   1.398       .  A
C1476      H1485   1.083       .  S
C1477      C1478   1.406       .  A
C1477      H1486   1.082       .  S
C1478      C1481   1.485       .  S
C1478      C1479   1.404       .  A
C1479      C1480   1.399       .  A
C1479      H1487   1.083       .  S
C1480      H1488   1.082       .  S
C1481      H1489   1.087       .  S
C1481      C1482   1.347       .  D
C1482      H1490   1.085       .  S
C1483      H1491   1.087       .  S
C1483      C1484   1.347       .  D
C1484      H1492   1.085       .  S
C1493      C1501   1.489       .  S
C1493      C1494   1.406       .  A
C1493      C1498   1.407       .  A
C1494      C1495   1.399       .  A
C1494      H1503   1.083       .  S
C1495      C1496   1.407       .  A
C1495      H1504   1.080       .  S
C1496      C1499   1.487       .  S
C1496      C1497   1.404       .  A
C1497      C1498   1.397       .  A
C1497      H1505   1.083       .  S
C1498      H1506   1.080       .  S
C1499      H1507   1.087       .  S
C1499      C1500   1.349       .  D
C1500      H1508   1.083       .  S
C1501      H1509   1.087       .  S
C1501      C1502   1.349       .  D
C1502      H1510   1.083       .  S
C1511      C1519   1.484       .  S
C1511      C1512   1.403       .  A
C1511      C1516   1.408       .  A
C1512      C1513   1.396       .  A
C1512      H1521   1.084       .  S
C1513      C1514   1.406       .  A
C1513      H1522   1.082       .  S
C1514      C1517   1.483       .  S
C1514      C1515   1.402       .  A
C1515      C1516   1.399       .  A
C1515      H1523   1.083       .  S
C1516      H1524   1.081       .  S
C1517      H1525   1.087       .  S
C1517      C1518   1.343       .  D
C1518      H1526   1.086       .  S
C1519      H1527   1.087       .  S
C1519      C1520   1.347       .  D
C1520      H1528   1.085       .  S
C1529      C1537   1.489       .  S
C1529      C1530   1.403       .  A
C1529      C1534   1.408       .  A
C1530      C1531   1.399       .  A
C1530      H1539   1.083       .  S
C1531      C1532   1.408       .  A
C1531      H1540   1.082       .  S
C1532      C1535   1.491       .  S
C1532      C1533   1.404       .  A
C1533      C1534   1.403       .  A
C1533      H1541   1.083       .  S
C1534      H1542   1.082       .  S
C1535      H1543   1.087       .  S
C1535      C1536   1.345       .  D
C1536      H1544   1.086       .  S
C1537      H1545   1.087       .  S
C1537      C1538   1.347       .  D
C1538      H1546   1.086       .  S
C1547      C1555   1.487       .  S
C1547      C1548   1.404       .  A
C1547      C1552   1.407       .  A
C1548      C1549   1.397   1_655  A
C1548      H1557   1.084   1_565  S
C1549      C1550   1.407       .  A
C1549      H1558   1.080       .  S
C1550      C1553   1.488       .  S
C1550      C1551   1.405   1_455  A
C1551      C1552   1.400       .  A
C1551      H1559   1.083       .  S
C1552      H1560   1.081       .  S
C1553      H1561   1.087       .  S
C1553      C1554   1.348       .  D
C1554      H1562   1.084       .  S
C1555      H1563   1.087   1_565  S
C1555      C1556   1.349       .  D
C1556      H1564   1.084       .  S
C1565      C1573   1.484       .  S
C1565      C1566   1.403       .  A
C1565      C1570   1.407       .  A
C1566      C1567   1.397       .  A
C1566      H1575   1.083       .  S
C1567      C1568   1.405       .  A
C1567      H1576   1.083       .  S
C1568      C1571   1.482       .  S
C1568      C1569   1.403       .  A
C1569      C1570   1.401       .  A
C1569      H1577   1.083       .  S
C1570      H1578   1.082       .  S
C1571      H1579   1.087       .  S
C1571      C1572   1.344       .  D
C1572      H1580   1.087       .  S
C1573      H1581   1.087       .  S
C1573      C1574   1.346       .  D
C1574      H1582   1.086       .  S
C1583      C1591   1.484       .  S
C1583      C1584   1.404       .  A
C1583      C1588   1.405       .  A
C1584      C1585   1.401       .  A
C1584      H1593   1.083       .  S
C1585      C1586   1.407       .  A
C1585      H1594   1.082       .  S
C1586      C1589   1.484   1_655  S
C1586      C1587   1.403       .  A
C1587      C1588   1.395       .  A
C1587      H1595   1.083   1_655  S
C1588      H1596   1.083       .  S
C1589      H1597   1.087       .  S
C1589      C1590   1.348       .  D
C1590      H1598   1.085       .  S
C1591      H1599   1.087       .  S
C1591      C1592   1.344       .  D
C1592      H1600   1.086       .  S
