geometry optimzed in LAMMPS
_audit_creation_date              2020-12-01 
_audit_creation_method            'lammps2cif' 
_symmetry_space_group_name_H-M    'P1' 
_symmetry_Int_Tables_number       1 
_symmetry_cell_setting            triclinic 
loop_ 
_symmetry_equiv_pos_as_xyz 
  x,y,z 
_cell_length_a                    32.79287361 
_cell_length_b                    32.74892333780424 
_cell_length_c                    30.62833750310714 
_cell_angle_alpha                 89.9348849541886 
_cell_angle_beta                  89.84168642759211 
_cell_angle_gamma                 89.96122907399152 
loop_ 
_atom_site_label 
_atom_site_type_symbol 
_atom_site_fract_x 
_atom_site_fract_y 
_atom_site_fract_z 
_atom_site_charge 
In1        In  0.84030164  0.41372899  0.65630980     1.36900
C2          C  0.85887365  0.47660753  0.70667229     0.78500
O3          O  0.85808406  0.37259084  0.71130724    -0.60000
O4          O  0.89761912  0.37655270  0.65653713    -0.50900
C5          C  0.77276907  0.37033764  0.65051283     0.71100
O6          O  0.77539584  0.40146827  0.67461602    -0.45800
C7          C  0.84118477  0.44467714  0.57649448     0.75800
O8          O  0.82380278  0.46072650  0.70695844    -0.57600
O9          O  0.86599681  0.41756031  0.58875380    -0.47700
O10         O  0.88326762  0.46143348  0.67931532    -0.54100
C11         C  0.89164533  0.36237583  0.69436250     0.86000
O12         O  0.80483007  0.36155866  0.62973540    -0.55900
O13         O  0.81649035  0.45647818  0.60546607    -0.59200
In14       In  0.59555757  0.18828038  0.64168493     1.36900
C15         C  0.52972489  0.17763871  0.69014269     0.78500
O16         O  0.55766751  0.21581434  0.58877228    -0.60000
O17         O  0.59577208  0.16510378  0.57356158    -0.50900
C18         C  0.64316400  0.25305289  0.64185382     0.71100
O19         O  0.60838295  0.25329199  0.65946391    -0.45800
C20         C  0.63543026  0.12385197  0.67256394     0.75800
O21         O  0.55998546  0.19765871  0.70357400    -0.57600
O22         O  0.61791685  0.12399992  0.63603298    -0.47700
O23         O  0.53229342  0.16543265  0.65134417    -0.54100
C24         C  0.56945792  0.19040029  0.56040787     0.86000
O25         O  0.65315069  0.21989700  0.62397705    -0.55900
O26         O  0.63437531  0.15745740  0.69247146    -0.59200
In27       In  0.59943900  0.77611622  0.30847418     1.36900
C28         C  0.53713126  0.79246765  0.25669493     0.78500
O29         O  0.55613395  0.74420128  0.35439983    -0.60000
O30         O  0.58697235  0.79736144  0.37616124    -0.50900
C31         C  0.65105563  0.71405939  0.30948306     0.71100
O32         O  0.62244037  0.71653737  0.28214380    -0.45800
C33         C  0.64596230  0.83724600  0.28073377     0.75800
O34         O  0.55434993  0.75797246  0.25609639    -0.57600
O35         O  0.63125829  0.83587808  0.31881875    -0.47700
O36         O  0.55074056  0.81708708  0.28454887    -0.54100
C37         C  0.56134402  0.76978793  0.38460086     0.86000
O38         O  0.65307680  0.74345891  0.33590996    -0.55900
O39         O  0.63909435  0.80594324  0.25796111    -0.59200
In40       In  0.84287737  0.54372104  0.32211415     1.36900
C41         C  0.86555715  0.48099874  0.27309738     0.78500
O42         O  0.86941373  0.58549945  0.27224145    -0.60000
O43         O  0.89903124  0.58039393  0.33352475    -0.50900
C44         C  0.77663842  0.59018449  0.31746779     0.71100
O45         O  0.78396700  0.56231190  0.29014754    -0.45800
C46         C  0.84070873  0.51070276  0.40098471     0.75800
O47         O  0.82860979  0.49138592  0.27696034    -0.57600
O48         O  0.86373529  0.53996762  0.39088852    -0.47700
O49         O  0.89014166  0.50222106  0.29482124    -0.54100
C50         C  0.89934193  0.59558990  0.29568762     0.86000
O51         O  0.80280101  0.59335629  0.34725376    -0.55900
O52         O  0.81804890  0.49837538  0.37050029    -0.59200
In53       In  0.46246681  0.77745626  0.63762249     1.36900
C54         C  0.53361613  0.78816197  0.67668775     0.78500
O55         O  0.49884474  0.74758098  0.58483240    -0.60000
O56         O  0.45915097  0.79628381  0.56798324    -0.50900
C57         C  0.40596451  0.71969151  0.64375085     0.71100
O58         O  0.44037695  0.71605107  0.66181092    -0.45800
C59         C  0.42697349  0.84157872  0.67322515     0.75800
O60         O  0.51038461  0.75874870  0.68665806    -0.57600
O61         O  0.43661285  0.84041183  0.63339863    -0.47700
O62         O  0.52036333  0.81080551  0.64663305    -0.54100
C63         C  0.48544252  0.77083924  0.55525716     0.86000
O64         O  0.40173933  0.75212061  0.62221423    -0.55900
O65         O  0.43447258  0.80943363  0.69440766    -0.59200
In66       In  0.21244605  0.54906006  0.64879379     1.36900
C67         C  0.19986467  0.48107614  0.69373317     0.78500
O68         O  0.18324305  0.58363342  0.70306099    -0.60000
O69         O  0.15462858  0.58401112  0.64097621    -0.50900
C70         C  0.27422966  0.60120009  0.64907151     0.71100
O71         O  0.27327392  0.57014584  0.67346957    -0.45800
C72         C  0.21581519  0.51717482  0.56959241     0.75800
O73         O  0.23196031  0.50190842  0.69830600    -0.57600
O74         O  0.18872655  0.54222109  0.58121614    -0.47700
O75         O  0.17436277  0.49573020  0.66732707    -0.54100
C76         C  0.15369338  0.59565297  0.68014363     0.86000
O77         O  0.24396690  0.60481133  0.62419618    -0.55900
O78         O  0.24191440  0.50911040  0.59854226    -0.59200
In79       In  0.21658169  0.40871673  0.31883398     1.36900
C80         C  0.19693416  0.47168870  0.26796078     0.78500
O81         O  0.19018180  0.36569591  0.26996410    -0.60000
O82         O  0.16281610  0.36870088  0.33262387    -0.50900
C83         C  0.28342976  0.36326476  0.31527776     0.71100
O84         O  0.27567616  0.39026776  0.28711445    -0.45800
C85         C  0.21779462  0.44388702  0.39704299     0.75800
O86         O  0.23341689  0.46120402  0.27450771    -0.57600
O87         O  0.19106108  0.41850031  0.38564131    -0.47700
O88         O  0.17107501  0.45012795  0.28778046    -0.54100
C89         C  0.16199736  0.35340639  0.29486391     0.86000
O90         O  0.25693676  0.36003446  0.34490292    -0.55900
O91         O  0.24434360  0.45105367  0.36823389    -0.59200
In92       In  0.46096068  0.17886244  0.31140863     1.36900
C93         C  0.52334569  0.15665192  0.26262313     0.78500
O94         O  0.50580738  0.20733552  0.35730779    -0.60000
O95         O  0.46850115  0.15890007  0.38048774    -0.50900
C96         C  0.41236960  0.24331914  0.31138245     0.71100
O97         O  0.44339959  0.24127124  0.28696761    -0.45800
C98         C  0.41344339  0.12029057  0.28087675     0.75800
O99         O  0.50825448  0.19212530  0.25994791    -0.57600
O100        O  0.42401970  0.12233036  0.32041868    -0.47700
O101        O  0.50744376  0.13383397  0.29103182    -0.54100
C102        C  0.49633165  0.18426071  0.38870409     0.86000
O103        O  0.40657238  0.21245988  0.33513339    -0.55900
O104        O  0.42489531  0.15017789  0.25784754    -0.59200
In105      In  0.71988916  0.91348155  0.80222436     1.36900
C106        C  0.69883203  0.97905377  0.75690297     0.78500
O107        O  0.70351022  0.87052845  0.74859047    -0.60000
O108        O  0.66314398  0.87522635  0.80241131    -0.50900
C109        C  0.78767064  0.87077775  0.80433534     0.71100
O110        O  0.78178915  0.89819174  0.77598142    -0.45800
C111        C  0.72011148  0.94371401  0.88215099     0.75800
O112        O  0.73522266  0.96640145  0.75781709    -0.57600
O113        O  0.69597968  0.91574040  0.87055899    -0.47700
O114        O  0.67417611  0.95836634  0.77938627    -0.54100
C115        C  0.67006617  0.85976278  0.76536989     0.86000
O116        O  0.75912563  0.86585479  0.83147702    -0.55900
O117        O  0.74401996  0.95601036  0.85263206    -0.59200
In118      In  0.95760198  0.68285129  0.82411141     1.36900
C119        C  0.02104810  0.66901298  0.77317870     0.78500
O120        O  0.99907007  0.71116004  0.87325159    -0.60000
O121        O  0.95520290  0.66733478  0.89454537    -0.50900
C122        C  0.91150091  0.74823991  0.81643139     0.71100
O123        O  0.94471419  0.74467771  0.79599068    -0.45800
C124        C  0.91781284  0.61597562  0.80125621     0.75800
O125        O  0.98891815  0.68542335  0.75917511    -0.57600
O126        O  0.94121470  0.61703022  0.83371701    -0.47700
O127        O  0.02147153  0.66184181  0.81350665    -0.54100
C128        C  0.98491661  0.69002493  0.90433912     0.86000
O129        O  0.90260363  0.71896415  0.84137957    -0.55900
O130        O  0.91293660  0.64971091  0.78235491    -0.59200
In131      In  0.71940196  0.04215416  0.13676362     1.36900
C132        C  0.70614474  0.97768739  0.18748088     0.78500
O133        O  0.69378929  0.08447137  0.18750467    -0.60000
O134        O  0.65701395  0.06873503  0.13301819    -0.50900
C135        C  0.78180222  0.09364482  0.13769400     0.71100
O136        O  0.77893522  0.06427542  0.16425629    -0.45800
C137        C  0.72037208  0.01109660  0.05689234     0.75800
O138        O  0.74184745  0.99029135  0.17957338    -0.57600
O139        O  0.69963231  0.04207855  0.06695108    -0.47700
O140        O  0.67827633  0.99732347  0.16866897    -0.54100
C141        C  0.65952437  0.08717459  0.16906581     0.86000
O142        O  0.75348965  0.09554612  0.11011195    -0.51100
O143        O  0.74080880  0.99600981  0.08773975    -0.59200
In144      In  0.96702625  0.27374489  0.15259270     1.36900
C145        C  0.02973297  0.27835131  0.20657434     0.78500
O146        O  0.00851215  0.24348671  0.10419013    -0.60000
O147        O  0.97324018  0.29479908  0.08360138    -0.50900
C148        C  0.91044340  0.21566820  0.14792379     0.71100
O149        O  0.94352755  0.21082247  0.16829572    -0.45800
C150        C  0.93039882  0.34058602  0.18216066     0.75800
O151        O  0.99749707  0.25968953  0.21699497    -0.57600
O152        O  0.95060326  0.34028869  0.14707907    -0.47700
O153        O  0.03034280  0.29228807  0.16831863    -0.54100
C154        C  0.99949118  0.26807741  0.07390055     0.86000
O155        O  0.90735906  0.24986573  0.12942876    -0.55900
O156        O  0.92843363  0.30656339  0.20114895    -0.59200
In157      In  0.34502663  0.04627743  0.81211034     1.36900
C158        C  0.36721390  0.98240988  0.76585814     0.78500
O159        O  0.37169953  0.08203744  0.75710477    -0.60000
O160        O  0.39695051  0.08934673  0.82045288    -0.50900
C161        C  0.27943670  0.09329819  0.81122115     0.71100
O162        O  0.28420381  0.06457991  0.78417694    -0.45800
C163        C  0.34164319  0.01025299  0.88964760     0.75800
O164        O  0.33095824  0.99553851  0.76566688    -0.57600
O165        O  0.36866141  0.03611074  0.87973237    -0.47700
O166        O  0.39159987  0.00169716  0.78990483    -0.54100
C167        C  0.39863534  0.09861709  0.78044978     0.86000
O168        O  0.30805316  0.09737199  0.83818684    -0.55900
O169        O  0.31615238  0.00332857  0.85982826    -0.59200
In170      In  0.10137439  0.27722029  0.82068227     1.36900
C171        C  0.03169627  0.29361498  0.78058528     0.78500
O172        O  0.06303564  0.24595710  0.87100671    -0.60000
O173        O  0.09783198  0.29731853  0.89058013    -0.50900
C174        C  0.15179417  0.21459585  0.81727833     0.71100
O175        O  0.12109468  0.21731113  0.79261140    -0.45800
C176        C  0.14638988  0.33497451  0.78295142     0.75800
O177        O  0.04955180  0.25968917  0.77574988    -0.57600
O178        O  0.13426592  0.33732182  0.82205930    -0.47700
O179        O  0.05003190  0.31844119  0.80497222    -0.54100
C180        C  0.07256102  0.26999809  0.90144330     0.86000
O181        O  0.15617136  0.24371255  0.84377164    -0.55900
O182        O  0.13698251  0.30195225  0.76447235    -0.59200
In183      In  0.09559710  0.67978115  0.15216205     1.36900
C184        C  0.03301033  0.66796273  0.20472732     0.78500
O185        O  0.05333313  0.71097590  0.10527985    -0.60000
O186        O  0.08793084  0.65989044  0.08339987    -0.50900
C187        C  0.14582844  0.74291644  0.15097460     0.71100
O188        O  0.11374394  0.74269791  0.17373905    -0.45800
C189        C  0.13654812  0.61424359  0.17793964     0.75800
O190        O  0.06271183  0.69004001  0.21568566    -0.57600
O191        O  0.11915449  0.61621201  0.14140026    -0.47700
O192        O  0.03470510  0.65364046  0.16672322    -0.54100
C193        C  0.06137944  0.68653194  0.07453058     0.86000
O194        O  0.15185989  0.71101069  0.12893121    -0.55900
O195        O  0.13489157  0.64658376  0.20001008    -0.59200
In196      In  0.33843411  0.91118919  0.14457682     1.36900
C197        C  0.34954995  0.97794124  0.19317899     0.78500
O198        O  0.36848155  0.86523686  0.18869137    -0.60000
O199        O  0.40256293  0.88897227  0.13584059    -0.50900
C200        C  0.27245042  0.86472203  0.14611091     0.71100
O201        O  0.27443673  0.89784893  0.16697330    -0.45800
C202        C  0.33646182  0.93699983  0.06272336     0.75800
O203        O  0.33653717  0.94490172  0.20901954    -0.57600
O204        O  0.36410368  0.91407027  0.07754641    -0.47700
O205        O  0.35533097  0.97701198  0.15266829    -0.54100
C206        C  0.40197901  0.86562250  0.16848582     0.86000
O207        O  0.30384134  0.85599006  0.12432306    -0.55900
O208        O  0.30867251  0.94550846  0.08994557    -0.59200
C209        C  0.23663602  0.83736718  0.14742561    -0.04500
C210        C  0.22100677  0.82113092  0.10820330    -0.01600
C211        C  0.18980546  0.79167577  0.10946957     0.03400
C212        C  0.17463668  0.77762191  0.14996051    -0.04500
C213        C  0.18901107  0.79509660  0.18917974    -0.01600
C214        C  0.21989471  0.82504305  0.18788428     0.03400
C215        C  0.23691736  0.83484212  0.06640935     0.38100
C216        C  0.17386680  0.78064179  0.23099251     0.38000
C217        C  0.23630573  0.84114882  0.22832000     0.36500
C218        C  0.17270599  0.77635588  0.06899137     0.36500
N219        N  0.24960571  0.85400236  0.26045310    -0.38400
N220        N  0.15881113  0.76418786  0.03684419    -0.38400
N221        N  0.16193728  0.76911703  0.26440073    -0.37800
N222        N  0.24970140  0.84568428  0.03310392    -0.37800
C223        C  0.34006760  0.98965661  0.93293244    -0.04500
C224        C  0.37656232  0.97823047  0.95414156    -0.01600
C225        C  0.37534314  0.96021731  0.99595262     0.03400
C226        C  0.33748667  0.95370107  0.01739798    -0.04500
C227        C  0.30089934  0.96397858  0.99548673    -0.01600
C228        C  0.30219795  0.98128606  0.95328092     0.03400
C229        C  0.41561308  0.98334904  0.93230114     0.38100
C230        C  0.26156950  0.95609968  0.01568665     0.38000
C231        C  0.26425704  0.99062611  0.93107301     0.36500
C232        C  0.41352203  0.94909789  0.01681090     0.36500
N233        N  0.23394686  0.99756976  0.91326359    -0.38400
N234        N  0.44399054  0.93998714  0.03315964    -0.38400
N235        N  0.23007616  0.95002987  0.03155999    -0.37800
N236        N  0.44683109  0.98711887  0.91504461    -0.37800
C237        C  0.24342700  0.12067341  0.81185426    -0.04500
C238        C  0.22632624  0.13244353  0.85239470    -0.01600
C239        C  0.19511668  0.16191951  0.85391839     0.03400
C240        C  0.18120416  0.18039622  0.81507777    -0.04500
C241        C  0.19714031  0.16764709  0.77440412    -0.01600
C242        C  0.22778505  0.13741023  0.77275067     0.03400
C243        C  0.24044376  0.11384638  0.89266742     0.38100
C244        C  0.18389637  0.18750374  0.73449593     0.38000
C245        C  0.24437184  0.12511987  0.73078376     0.36500
C246        C  0.17677475  0.17265400  0.89559702     0.36500
N247        N  0.25721904  0.11536508  0.69716912    -0.38400
N248        N  0.16205422  0.18102342  0.92876443    -0.38400
N249        N  0.17331730  0.20371827  0.70286190    -0.37800
N250        N  0.25187361  0.09904799  0.92474640    -0.37800
C251        C  0.01875924  0.26636825  0.03032809    -0.04500
C252        C  0.05979330  0.27819935  0.02500120    -0.01600
C253        C  0.07790032  0.27793300  0.98316463     0.03400
C254        C  0.05460868  0.26703560  0.94608594    -0.04500
C255        C  0.01343038  0.25481271  0.95178783    -0.01600
C256        C  0.99568790  0.25452614  0.99378928     0.03400
C257        C  0.08273100  0.29287206  0.06227761     0.38100
C258        C  0.98853171  0.24393006  0.91447439     0.38000
C259        C  0.95341093  0.24245817  0.99947616     0.36500
C260        C  0.12079612  0.28801120  0.97867159     0.36500
N261        N  0.91969272  0.23294438  0.00411961    -0.38400
N262        N  0.15505965  0.29585927  0.97517639    -0.38400
N263        N  0.96858242  0.23521787  0.88479789    -0.37800
N264        N  0.10085519  0.30521717  0.09181338    -0.37800
C265        C  0.81491957  0.12447142  0.13953532    -0.04500
C266        C  0.85556386  0.11247256  0.14748966    -0.01600
C267        C  0.88667923  0.14207162  0.15096710     0.03400
C268        C  0.87755177  0.18414179  0.14576788    -0.04500
C269        C  0.83656936  0.19598282  0.13780101    -0.01600
C270        C  0.80564754  0.16631679  0.13425189     0.03400
C271        C  0.86581969  0.06940946  0.14994215     0.38100
C272        C  0.82530168  0.23879392  0.13472330     0.38000
C273        C  0.76395825  0.17926274  0.12602196     0.36500
C274        C  0.92813047  0.12869355  0.15926857     0.36500
N275        N  0.73086407  0.18969492  0.11912545    -0.38400
N276        N  0.96109224  0.11786920  0.16618743    -0.38400
N277        N  0.81583419  0.27276513  0.13215199    -0.37800
N278        N  0.87400707  0.03505986  0.15153761    -0.37800
C279        C  0.00323905  0.68979633  0.94843992    -0.04500
C280        C  0.01045374  0.65210469  0.96957632    -0.01600
C281        C  0.02881765  0.65120980  0.01102560     0.03400
C282        C  0.04068052  0.68799925  0.03155782    -0.04500
C283        C  0.03329030  0.72572620  0.01049143    -0.01600
C284        C  0.01499792  0.72657425  0.96884687     0.03400
C285        C  0.00106759  0.61388886  0.94770662     0.38100
C286        C  0.04571970  0.76369378  0.03084959     0.38000
C287        C  0.00839028  0.76534163  0.94699907     0.36500
C288        C  0.03467654  0.61218833  0.03273964     0.36500
N289        N  0.00339941  0.79620641  0.92935675    -0.38400
N290        N  0.03926467  0.58098849  0.04983534    -0.38400
N291        N  0.05558108  0.79402447  0.04703360    -0.37800
N292        N  0.99381620  0.58350076  0.93010351    -0.37800
C293        C  0.72061616  0.99381544  0.01229035    -0.04500
C294        C  0.71484489  0.95150840  0.00600228    -0.01600
C295        C  0.71508245  0.93503609  0.96351306     0.03400
C296        C  0.72041777  0.96089282  0.92692894    -0.04500
C297        C  0.72604382  0.00329952  0.93330813    -0.01600
C298        C  0.72624881  0.01964968  0.97583277     0.03400
C299        C  0.70694564  0.92504989  0.04312892     0.38100
C300        C  0.73042121  0.03053465  0.89616145     0.38000
C301        C  0.73316354  0.06305285  0.98200730     0.36500
C302        C  0.71100844  0.89124160  0.95771003     0.36500
N303        N  0.73870790  0.09765066  0.98684595    -0.38400
N304        N  0.70786658  0.85632108  0.95303686    -0.38400
N305        N  0.73385930  0.05233689  0.86662168    -0.37800
N306        N  0.70032074  0.90397205  0.07265902    -0.37800
C307        C  0.82437012  0.84483441  0.80533487    -0.04500
C308        C  0.84426101  0.83775854  0.84543234    -0.01600
C309        C  0.87383717  0.80685265  0.84866227     0.03400
C310        C  0.88440605  0.78372413  0.81155144    -0.04500
C311        C  0.86637260  0.79242130  0.77077428    -0.01600
C312        C  0.83640409  0.82313055  0.76763161     0.03400
C313        C  0.83434378  0.86239165  0.88338611     0.38100
C314        C  0.87594485  0.76747143  0.73296434     0.38000
C315        C  0.81594986  0.83038039  0.72635961     0.36500
C316        C  0.89258944  0.79803682  0.89049496     0.36500
N317        N  0.79943460  0.83634690  0.69361412    -0.38400
N318        N  0.90725097  0.79069561  0.92391639    -0.38400
N319        N  0.88313664  0.74739738  0.70282980    -0.37800
N320        N  0.82663420  0.88220186  0.91357182    -0.37800
C321        C  0.55689926  0.14186938  0.23462427    -0.04500
C322        C  0.59452695  0.16260121  0.23360581    -0.01600
C323        C  0.62827129  0.14507220  0.21191481     0.03400
C324        C  0.62395440  0.10748646  0.18964764    -0.04500
C325        C  0.58566287  0.08757095  0.18943461    -0.01600
C326        C  0.55239495  0.10458145  0.21207683     0.03400
C327        C  0.59900595  0.20095581  0.25677789     0.38100
C328        C  0.58092368  0.04803787  0.16853940     0.38000
C329        C  0.51349484  0.08334843  0.21234719     0.36500
C330        C  0.66747968  0.16544482  0.21347341     0.36500
N331        N  0.48270865  0.06608930  0.21239510    -0.38400
N332        N  0.69868455  0.18180690  0.21546963    -0.38400
N333        N  0.57711428  0.01646301  0.15211030    -0.37800
N334        N  0.60227914  0.23155525  0.27529872    -0.37800
C335        C  0.35977736  0.01442233  0.21971561    -0.04500
C336        C  0.38280818  0.01002016  0.25830813    -0.01600
C337        C  0.39917095  0.04468118  0.27917679     0.03400
C338        C  0.39185455  0.08432778  0.26215850    -0.04500
C339        C  0.36675600  0.08873612  0.22489534    -0.01600
C340        C  0.35074643  0.05395052  0.20390559     0.03400
C341        C  0.39207335  0.96959864  0.27515207     0.38100
C342        C  0.35760799  0.12900097  0.20757161     0.38000
C343        C  0.32451994  0.05891433  0.16616228     0.36500
C344        C  0.42632862  0.03881053  0.31603598     0.36500
N345        N  0.30345231  0.06291949  0.13619817    -0.38400
N346        N  0.44819761  0.03399290  0.34519915    -0.38400
N347        N  0.35050025  0.16106676  0.19358862    -0.37800
N348        N  0.39943085  0.93740922  0.28863635    -0.37800
C349        C  0.15531317  0.57637986  0.19510539    -0.04500
C350        C  0.13375753  0.53912194  0.19283862    -0.01600
C351        C  0.14835053  0.50444917  0.21515919     0.03400
C352        C  0.18477876  0.50665917  0.23979631    -0.04500
C353        C  0.20786496  0.54318184  0.23926174    -0.01600
C354        C  0.19289309  0.57802207  0.21738433     0.03400
C355        C  0.09518019  0.53691940  0.16976073     0.38100
C356        C  0.24619479  0.54577776  0.26262363     0.38000
C357        C  0.21605180  0.61579213  0.21800759     0.36500
C358        C  0.12564261  0.46644999  0.21257199     0.36500
N359        N  0.23424244  0.64606362  0.21842157    -0.38400
N360        N  0.10746896  0.43622447  0.21053340    -0.38400
N361        N  0.27690113  0.54804590  0.28100023    -0.37800
N362        N  0.06441456  0.53518955  0.15142384    -0.37800
C363        C  0.12917942  0.32541389  0.27967085    -0.04500
C364        C  0.08895310  0.32901620  0.29649425    -0.01600
C365        C  0.05624914  0.30959469  0.27507543     0.03400
C366        C  0.06357270  0.28658617  0.23697343    -0.04500
C367        C  0.10391269  0.27883834  0.22348342    -0.01600
C368        C  0.13670749  0.29806064  0.24475780     0.03400
C369        C  0.08027458  0.35528806  0.33352273     0.38100
C370        C  0.11142520  0.25181390  0.18680203     0.38000
C371        C  0.17801908  0.29026251  0.22980428     0.36500
C372        C  0.01470238  0.31648275  0.28989272     0.36500
N373        N  0.21088239  0.28399806  0.21765488    -0.38400
N374        N  0.98159655  0.32209151  0.30164588    -0.38400
N375        N  0.11719952  0.23012830  0.15762113    -0.37800
N376        N  0.07321285  0.37626832  0.36298389    -0.37800
C377        C  0.32022241  0.33676994  0.31389216    -0.04500
C378        C  0.33727748  0.32217481  0.35334504    -0.01600
C379        C  0.36833765  0.29252925  0.35244434     0.03400
C380        C  0.38400403  0.27851877  0.31214101    -0.04500
C381        C  0.36970463  0.29580696  0.27279314    -0.01600
C382        C  0.33716396  0.32402674  0.27354349     0.03400
C383        C  0.32317399  0.33776588  0.39514262     0.38100
C384        C  0.38685190  0.28293910  0.23128621     0.38000
C385        C  0.31947507  0.33745459  0.23257735     0.36500
C386        C  0.38415056  0.27645997  0.39326726     0.36500
N387        N  0.30528561  0.34775101  0.19979933    -0.38400
N388        N  0.39649846  0.26351118  0.42583198    -0.38400
N389        N  0.40071083  0.27286411  0.19821294    -0.37800
N390        N  0.31191483  0.35027770  0.42839009    -0.37800
C391        C  0.19237981  0.44178694  0.71635508    -0.04500
C392        C  0.19673177  0.43830626  0.76199092    -0.01600
C393        C  0.18509283  0.40192374  0.78348276     0.03400
C394        C  0.16721621  0.36939660  0.75967611    -0.04500
C395        C  0.16591465  0.37204858  0.71337536    -0.01600
C396        C  0.17861365  0.40799741  0.69201805     0.03400
C397        C  0.21052219  0.47308927  0.78724431     0.38100
C398        C  0.15023263  0.33871526  0.68711985     0.38000
C399        C  0.17723058  0.41035684  0.64462547     0.36500
C400        C  0.19197435  0.39815165  0.83010371     0.36500
N401        N  0.17618551  0.41242182  0.60692355    -0.38400
N402        N  0.19778437  0.39509862  0.86721515    -0.38400
N403        N  0.13781223  0.31229525  0.66588674    -0.37800
N404        N  0.22113227  0.50096565  0.80744280    -0.37800
C405        C  0.11984067  0.62009770  0.69852747    -0.04500
C406        C  0.07915368  0.61220629  0.68583078    -0.01600
C407        C  0.04663693  0.63010852  0.70896966     0.03400
C408        C  0.05472939  0.65634360  0.74443167    -0.04500
C409        C  0.09520957  0.66672324  0.75492341    -0.01600
C410        C  0.12776774  0.64906631  0.73164626     0.03400
C411        C  0.07029573  0.58385325  0.65065666     0.38100
C412        C  0.10336454  0.69533599  0.79002245     0.38000
C413        C  0.16931896  0.66116655  0.74135254     0.36500
C414        C  0.00496349  0.61877151  0.69863007     0.36500
N415        N  0.20251015  0.67095384  0.74884540    -0.38400
N416        N  0.97173260  0.60951419  0.69059751    -0.38400
N417        N  0.10979804  0.71807506  0.81802286    -0.37800
N418        N  0.06309177  0.56143007  0.62258080    -0.37800
C419        C  0.21655841  0.49859670  0.52543473    -0.04500
C420        C  0.25404891  0.49127345  0.50394392    -0.01600
C421        C  0.25462166  0.47362573  0.46194890     0.03400
C422        C  0.21761619  0.46363651  0.44076446    -0.04500
C423        C  0.18010472  0.47211408  0.46187563    -0.01600
C424        C  0.17959689  0.48857919  0.50431940     0.03400
C425        C  0.29218394  0.50288507  0.52447785     0.38100
C426        C  0.14171562  0.46569594  0.43934528     0.38000
C427        C  0.14079809  0.49378610  0.52665824     0.36500
C428        C  0.29354405  0.46540791  0.44106020     0.36500
N429        N  0.10983217  0.49767958  0.54440555    -0.38400
N430        N  0.32470353  0.45910336  0.42454683    -0.38400
N431        N  0.11112010  0.46095471  0.42130017    -0.37800
N432        N  0.32247008  0.51225420  0.54098804    -0.37800
C433        C  0.40945107  0.87822513  0.69408704    -0.04500
C434        C  0.37643464  0.87429766  0.72349326    -0.01600
C435        C  0.36208934  0.90863477  0.74645316     0.03400
C436        C  0.38058418  0.94700402  0.73994788    -0.04500
C437        C  0.41323996  0.95115706  0.71014979    -0.01600
C438        C  0.42743247  0.91689171  0.68690664     0.03400
C439        C  0.35699404  0.83494969  0.72999952     0.38100
C440        C  0.43242641  0.99068207  0.70361623     0.38000
C441        C  0.46173267  0.92119795  0.65715429     0.36500
C442        C  0.32990717  0.90399361  0.77868777     0.36500
N443        N  0.48905156  0.92456043  0.63340539    -0.38400
N444        N  0.30448574  0.90022393  0.80466271    -0.38400
N445        N  0.44778729  0.02215655  0.69858179    -0.37800
N446        N  0.34156014  0.80355165  0.73522849    -0.37800
C447        C  0.57289395  0.79729624  0.69875085    -0.04500
C448        C  0.57724549  0.79270208  0.74439207    -0.01600
C449        C  0.61098447  0.81028481  0.76593759     0.03400
C450        C  0.63997899  0.83347223  0.74217260    -0.04500
C451        C  0.63776491  0.83412575  0.69596016    -0.01600
C452        C  0.60480384  0.81542939  0.67446076     0.03400
C453        C  0.54625050  0.77164770  0.76968954     0.38100
C454        C  0.66786154  0.85596526  0.67009756     0.38000
C455        C  0.60371480  0.81495361  0.62702888     0.36500
C456        C  0.61578382  0.80433828  0.81260345     0.36500
N457        N  0.60282913  0.81431028  0.58925931    -0.38400
N458        N  0.61975690  0.79935710  0.84976904    -0.38400
N459        N  0.69171867  0.87342134  0.64934946    -0.37800
N460        N  0.52168584  0.75478095  0.79004091    -0.37800
C461        C  0.37249067  0.68909432  0.64742449    -0.04500
C462        C  0.33131414  0.70215522  0.64471938    -0.01600
C463        C  0.29936506  0.67346899  0.64539104     0.03400
C464        C  0.30798576  0.63135600  0.64950799    -0.04500
C465        C  0.34887966  0.61825640  0.65336522    -0.01600
C466        C  0.38101708  0.64692841  0.65226670     0.03400
C467        C  0.32126154  0.74532777  0.64211199     0.38100
C468        C  0.35810652  0.57497731  0.65631844     0.38000
C469        C  0.42279554  0.63248349  0.65435961     0.36500
C470        C  0.25747409  0.68776195  0.64268652     0.36500
N471        N  0.45600399  0.62060257  0.65604317    -0.38400
N472        N  0.22425286  0.69951417  0.64033314    -0.38400
N473        N  0.36516408  0.54041075  0.65858104    -0.37800
N474        N  0.31317780  0.77967353  0.63983712    -0.37800
C475        C  0.93339831  0.62093193  0.27876460    -0.04500
C476        C  0.97399643  0.61326899  0.29250942    -0.01600
C477        C  0.00689602  0.63140647  0.27012289     0.03400
C478        C  0.99939267  0.65733750  0.23433960    -0.04500
C479        C  0.95919276  0.66775907  0.22295999    -0.01600
C480        C  0.92617763  0.64980523  0.24520644     0.03400
C481        C  0.98255943  0.58451750  0.32741943     0.38100
C482        C  0.95196806  0.69636892  0.18758385     0.38000
C483        C  0.88487327  0.66077324  0.23292319     0.36500
C484        C  0.04854322  0.62071460  0.28156882     0.36500
N485        N  0.85198841  0.66953644  0.22296345    -0.38400
N486        N  0.08170923  0.61203636  0.29051399    -0.38400
N487        N  0.94642297  0.71926224  0.15940549    -0.37800
N488        N  0.98972015  0.56164695  0.35520309    -0.37800
C489        C  0.87959449  0.44637343  0.24580820    -0.04500
C490        C  0.91564095  0.45009269  0.22060974    -0.01600
C491        C  0.93192946  0.41578582  0.19890843     0.03400
C492        C  0.91136168  0.37786272  0.20077578    -0.04500
C493        C  0.87395859  0.37495158  0.22373105    -0.01600
C494        C  0.85874593  0.40872974  0.24709511     0.03400
C495        C  0.93624836  0.48923682  0.21714600     0.38100
C496        C  0.85091611  0.33713437  0.22361210     0.38000
C497        C  0.82338790  0.40365778  0.27518856     0.36500
C498        C  0.97119128  0.41916180  0.17715180     0.36500
N499        N  0.79556824  0.39940036  0.29806917    -0.38400
N500        N  0.00264807  0.42190393  0.16016598    -0.38400
N501        N  0.83234116  0.30710575  0.22369480    -0.37800
N502        N  0.95261060  0.52045002  0.21438324    -0.37800
C503        C  0.66659451  0.87400092  0.26268285    -0.04500
C504        C  0.64981077  0.91314878  0.27050063    -0.01600
C505        C  0.66521161  0.94749008  0.24821971     0.03400
C506        C  0.69644385  0.94292739  0.21674578    -0.04500
C507        C  0.71469950  0.90432561  0.21049600    -0.01600
C508        C  0.70010169  0.87001573  0.23379193     0.03400
C509        C  0.61431131  0.91791770  0.29848813     0.38100
C510        C  0.74656450  0.89930784  0.17801451     0.38000
C511        C  0.71927002  0.83049802  0.22759792     0.36500
C512        C  0.64843891  0.98767903  0.25735294     0.36500
N513        N  0.73458944  0.79896670  0.22279620    -0.38400
N514        N  0.63521884  0.01971481  0.26476548    -0.38400
N515        N  0.77180833  0.89525758  0.15189065    -0.37800
N516        N  0.58573363  0.92176954  0.32036470    -0.37800
C517        C  0.43818768  0.84208824  0.18331916    -0.04500
C518        C  0.47767213  0.85923713  0.17972891    -0.01600
C519        C  0.51079395  0.84054365  0.20092423     0.03400
C520        C  0.50471753  0.80507407  0.22620768    -0.04500
C521        C  0.46661799  0.78525584  0.22565082    -0.01600
C522        C  0.43339299  0.80357962  0.20384113     0.03400
C523        C  0.48433199  0.89708311  0.15607334     0.38100
C524        C  0.46124250  0.74698074  0.24880542     0.38000
C525        C  0.39460040  0.78241206  0.20170114     0.36500
C526        C  0.55143696  0.85778765  0.19680579     0.36500
N527        N  0.36376884  0.76536637  0.19946168    -0.38400
N528        N  0.58395013  0.87112217  0.19326335    -0.38400
N529        N  0.45699257  0.71634106  0.26712598    -0.37800
N530        N  0.48986607  0.92717694  0.13711984    -0.37800
C531        C  0.53848392  0.76880633  0.42638103    -0.04500
C532        C  0.52251420  0.80554419  0.44348967    -0.01600
C533        C  0.50432379  0.80613260  0.48514038     0.03400
C534        C  0.50074543  0.76958098  0.50960449    -0.04500
C535        C  0.51400427  0.73230333  0.49104458    -0.01600
C536        C  0.53331896  0.73198798  0.44982495     0.03400
C537        C  0.52422423  0.84290606  0.41791136     0.38100
C538        C  0.50737862  0.69409625  0.51409183     0.38000
C539        C  0.54944685  0.69397697  0.43268717     0.36500
C540        C  0.49120929  0.84496135  0.50329511     0.36500
N541        N  0.56232668  0.66349443  0.41942364    -0.38400
N542        N  0.48091824  0.87598872  0.51767022    -0.38400
N543        N  0.50185628  0.66377714  0.53264229    -0.37800
N544        N  0.52546486  0.87260741  0.39743830    -0.37800
C545        C  0.68021865  0.67946157  0.31087184    -0.04500
C546        C  0.69247038  0.66328384  0.35156430    -0.01600
C547        C  0.72219405  0.63229752  0.35341043     0.03400
C548        C  0.74099089  0.61808546  0.31469077    -0.04500
C549        C  0.72726747  0.63279490  0.27381934    -0.01600
C550        C  0.69669454  0.66310768  0.27192527     0.03400
C551        C  0.67381229  0.67780999  0.39172073     0.38100
C552        C  0.74557239  0.61806240  0.23361201     0.38000
C553        C  0.68347212  0.67851569  0.22981795     0.36500
C554        C  0.73224918  0.61400301  0.39523271     0.36500
N555        N  0.67277110  0.69062743  0.19622868    -0.38400
N556        N  0.73992479  0.59920301  0.42854738    -0.38400
N557        N  0.76008153  0.60624215  0.20153352    -0.37800
N558        N  0.65897562  0.68950024  0.42368056    -0.37800
C559        C  0.49535454  0.16562190  0.71838677    -0.04500
C560        C  0.45499249  0.17055499  0.70368337    -0.01600
C561        C  0.42284710  0.15011061  0.72506976     0.03400
C562        C  0.43102725  0.12501831  0.76172692    -0.04500
C563        C  0.47124685  0.12281254  0.77833956    -0.01600
C564        C  0.50324967  0.14318152  0.75674682     0.03400
C565        C  0.44666220  0.19697155  0.66666357     0.38100
C566        C  0.48067113  0.09701822  0.81556232     0.38000
C567        C  0.54482766  0.13842292  0.77220936     0.36500
C568        C  0.38153709  0.15474746  0.70890846     0.36500
N569        N  0.57797943  0.13463712  0.78443885    -0.38400
N570        N  0.34868315  0.15845252  0.69576584    -0.38400
N571        N  0.48831099  0.07638135  0.84513406    -0.37800
N572        N  0.44009654  0.21839310  0.63742991    -0.37800
C573        C  0.68517724  0.01526074  0.73172782    -0.04500
C574        C  0.64715341  0.01408235  0.71007580    -0.01600
C575        C  0.63115878  0.04961299  0.69075734     0.03400
C576        C  0.65358660  0.08641396  0.69155429    -0.04500
C577        C  0.69217670  0.08740329  0.71194760    -0.01600
C578        C  0.70800707  0.05188405  0.73192363     0.03400
C579        C  0.62433291  0.97614420  0.70732644     0.38100
C580        C  0.71557703  0.12498609  0.71252285     0.38000
C581        C  0.74692874  0.05367935  0.75425032     0.36500
C582        C  0.59023175  0.04882749  0.67273507     0.36500
N583        N  0.77797853  0.05520916  0.77205126    -0.38400
N584        N  0.55746246  0.04834651  0.65880733    -0.38400
N585        N  0.73418607  0.15499893  0.71306301    -0.37800
N586        N  0.60617244  0.94592231  0.70513472    -0.37800
C587        C  0.55250775  0.18918891  0.51560749    -0.04500
C588        C  0.54444249  0.15114724  0.49555155    -0.01600
C589        C  0.52760876  0.14975882  0.45337413     0.03400
C590        C  0.51651689  0.18623583  0.43182571    -0.04500
C591        C  0.52438109  0.22427081  0.45183046    -0.01600
C592        C  0.54316168  0.22575710  0.49316578     0.03400
C593        C  0.55178220  0.11318262  0.51882185     0.38100
C594        C  0.51184033  0.26190709  0.43069270     0.38000
C595        C  0.55394066  0.26497465  0.51189103     0.36500
C596        C  0.52311661  0.11067923  0.43154635     0.36500
N597        N  0.56285527  0.29622820  0.52665336    -0.38400
N598        N  0.51993566  0.07959629  0.41394266    -0.38400
N599        N  0.50160057  0.29187802  0.41391497    -0.37800
N600        N  0.55738107  0.08292182  0.53743363    -0.37800
C601        C  0.92299279  0.33821628  0.71808979    -0.04500
C602        C  0.94932008  0.31152032  0.69513898    -0.01600
C603        C  0.98401226  0.29492845  0.71591084     0.03400
C604        C  0.99216591  0.30447104  0.76002400    -0.04500
C605        C  0.96357349  0.32775219  0.78407374    -0.01600
C606        C  0.92935612  0.34483177  0.76322919     0.03400
C607        C  0.94065806  0.30103713  0.65008312     0.38100
C608        C  0.96954514  0.33457439  0.83050408     0.38000
C609        C  0.90242942  0.37140641  0.78800006     0.36500
C610        C  0.01230067  0.27000739  0.69104670     0.36500
N611        N  0.88122844  0.39280205  0.80780239    -0.38400
N612        N  0.03476840  0.25017785  0.67098484    -0.38400
N613        N  0.97453101  0.33994703  0.86744543    -0.37800
N614        N  0.93344154  0.29265121  0.61423289    -0.37800
C615        C  0.87130313  0.51004604  0.73631737    -0.04500
C616        C  0.91033246  0.50896660  0.75589465    -0.01600
C617        C  0.92463347  0.54277920  0.77962684     0.03400
C618        C  0.89988515  0.57783052  0.78421499    -0.04500
C619        C  0.85978084  0.57774009  0.76755545    -0.01600
C620        C  0.84549067  0.54394688  0.74358870     0.03400
C621        C  0.93622744  0.47320188  0.75145871     0.38100
C622        C  0.83333416  0.61266746  0.77478277     0.38000
C623        C  0.80513167  0.54529991  0.72438712     0.36500
C624        C  0.96596019  0.54236055  0.79663546     0.36500
N625        N  0.77292612  0.54660920  0.70908933    -0.38400
N626        N  0.99892651  0.54208124  0.81004449    -0.38400
N627        N  0.81241184  0.64060555  0.78070480    -0.37800
N628        N  0.95724787  0.44497530  0.74808245    -0.37800
C629        C  0.84093847  0.46120191  0.53146423    -0.04500
C630        C  0.87798824  0.47185687  0.51083806    -0.01600
C631        C  0.87789006  0.48731112  0.46792155     0.03400
C632        C  0.84066983  0.49254189  0.44532644    -0.04500
C633        C  0.80357175  0.48193816  0.46598061    -0.01600
C634        C  0.80370088  0.46641649  0.50893954     0.03400
C635        C  0.91618670  0.46892826  0.53450568     0.38100
C636        C  0.76501988  0.48869755  0.44392266     0.38000
C637        C  0.76536211  0.45566106  0.52976198     0.36500
C638        C  0.91636301  0.49743213  0.44697573     0.36500
N639        N  0.73472038  0.44732957  0.54635338    -0.38400
N640        N  0.94699663  0.50565310  0.43031402    -0.38400
N641        N  0.73425698  0.49422721  0.42644221    -0.37800
N642        N  0.94660344  0.46689585  0.55346287    -0.37800
C643        C  0.73542510  0.34517599  0.64737307    -0.04500
C644        C  0.72332190  0.32908758  0.60657069    -0.01600
C645        C  0.69136284  0.30051599  0.60445582     0.03400
C646        C  0.67111269  0.28826430  0.64294972    -0.04500
C647        C  0.68051496  0.30714533  0.68304441    -0.01600
C648        C  0.71301172  0.33514720  0.68541667     0.03400
C649        C  0.74335025  0.34211555  0.56659599     0.38100
C650        C  0.65817604  0.29621851  0.72232827     0.38000
C651        C  0.72497937  0.35129515  0.72758194     0.36500
C652        C  0.67873540  0.28414374  0.56256514     0.36500
N653        N  0.73456864  0.36397138  0.76128036    -0.38400
N654        N  0.66834640  0.27111699  0.52929177    -0.38400
N655        N  0.64013667  0.28762336  0.75353704    -0.37800
N656        N  0.75905888  0.35238925  0.53453528    -0.37800
loop_ 
_geom_bond_atom_site_label_1 
_geom_bond_atom_site_label_2 
_geom_bond_distance 
_geom_bond_site_symmetry_2 
_ccdc_geom_bond_type 
In1           O3   2.234       .  S
In1           O4   2.239       .  S
In1          O12   2.224       .  S
In1           O6   2.236       .  S
In1           O8   2.251       .  S
In1           O9   2.235       .  S
In1          O10   2.221       .  S
In1          O13   2.235       .  S
C2            O8   1.263       .  A
C2           O10   1.259       .  A
C2          C615   1.481       .  S
O3           C11   1.261       .  A
O4           C11   1.262       .  A
C5           O12   1.261       .  A
C5            O6   1.263       .  A
C5          C643   1.480       .  S
C7            O9   1.262       .  A
C7           O13   1.261       .  A
C7          C629   1.481       .  S
C11         C601   1.487       .  S
In14         O16   2.234       .  S
In14         O17   2.221       .  S
In14         O25   2.220       .  S
In14         O19   2.239       .  S
In14         O21   2.244       .  S
In14         O22   2.235       .  S
In14         O23   2.225       .  S
In14         O26   2.250       .  S
C15          O21   1.260       .  A
C15          O23   1.257       .  A
C15         C559   1.472       .  S
O16          C24   1.263       .  A
O17          C24   1.262       .  A
C18          O25   1.259       .  A
C18          O19   1.260       .  A
C18         C646   1.474       .  S
C20          O22   1.259       .  A
C20          O26   1.259       .  A
C20         C576   1.482       .  S
C24         C587   1.482       .  S
In27         O29   2.253       .  S
In27         O30   2.224       .  S
In27         O38   2.224       .  S
In27         O32   2.242       .  S
In27         O34   2.265       .  S
In27         O35   2.242       .  S
In27         O36   2.211       .  S
In27         O39   2.242       .  S
C28          O34   1.263       .  A
C28          O36   1.257       .  A
C28         C520   1.475       .  S
O29          C37   1.261       .  A
O30          C37   1.260       .  A
C31          O38   1.260       .  A
C31          O32   1.262       .  A
C31         C545   1.483       .  S
C33          O35   1.262       .  A
C33          O39   1.261       .  A
C33         C503   1.487       .  S
C37         C531   1.482       .  S
In40         O42   2.225       .  S
In40         O43   2.228       .  S
In40         O51   2.226       .  S
In40         O45   2.251       .  S
In40         O47   2.254       .  S
In40         O48   2.220       .  S
In40         O49   2.223       .  S
In40         O52   2.248       .  S
C41          O47   1.264       .  A
C41          O49   1.257       .  A
C41         C489   1.482       .  S
O42          C50   1.262       .  A
O43          C50   1.261       .  A
C44          O51   1.258       .  A
C44          O45   1.262       .  A
C44         C548   1.486       .  S
C46          O48   1.258       .  A
C46          O52   1.262       .  A
C46         C632   1.482       .  S
C50         C475   1.484       .  S
In53         O55   2.233       .  S
In53         O56   2.223       .  S
In53         O64   2.210       .  S
In53         O58   2.261       .  S
In53         O60   2.260       .  S
In53         O61   2.232       .  S
In53         O62   2.209       .  S
In53         O65   2.227       .  S
C54          O60   1.265       .  A
C54          O62   1.260       .  A
C54         C447   1.487       .  S
O55          C63   1.263       .  A
O56          C63   1.260       .  A
C57          O64   1.257       .  A
C57          O58   1.264       .  A
C57         C461   1.491       .  S
C59          O61   1.260       .  A
C59          O65   1.260       .  A
C59         C433   1.476       .  S
C63         C534   1.485       .  S
In66         O68   2.226       .  S
In66         O69   2.227       .  S
In66         O77   2.228       .  S
In66         O71   2.245       .  S
In66         O73   2.257       .  S
In66         O74   2.225       .  S
In66         O75   2.220       .  S
In66         O78   2.238       .  S
C67          O73   1.263       .  A
C67          O75   1.259       .  A
C67         C391   1.481       .  S
O68          C76   1.261       .  A
O69          C76   1.259       .  A
C70          O77   1.258       .  A
C70          O71   1.262       .  A
C70         C464   1.484       .  S
C72          O74   1.260       .  A
C72          O78   1.262       .  A
C72         C419   1.484       .  S
C76         C405   1.479       .  S
In79         O81   2.233       .  S
In79         O82   2.237       .  S
In79         O90   2.221       .  S
In79         O84   2.248       .  S
In79         O86   2.257       .  S
In79         O87   2.232       .  S
In79         O88   2.230       .  S
In79         O91   2.248       .  S
C80          O86   1.261       .  A
C80          O88   1.258       .  A
C80         C352   1.488       .  S
O81          C89   1.262       .  A
O82          C89   1.261       .  A
C83          O90   1.259       .  A
C83          O84   1.261       .  A
C83         C377   1.486       .  S
C85          O87   1.259       .  A
C85          O91   1.260       .  A
C85         C422   1.488       .  S
C89         C363   1.490       .  S
In92         O94   2.242       .  S
In92         O95   2.228       .  S
In92        O103   2.216       .  S
In92         O97   2.251       .  S
In92         O99   2.250       .  S
In92        O100   2.230       .  S
In92        O101   2.209       .  S
In92        O104   2.233       .  S
C93          O99   1.265       .  A
C93         O101   1.259       .  A
C93         C321   1.475       .  S
O94         C102   1.261       .  A
O95         C102   1.260       .  A
C96         O103   1.259       .  A
C96          O97   1.263       .  A
C96         C380   1.481       .  S
C98         O100   1.263       .  A
C98         O104   1.263       .  A
C98         C338   1.491       .  S
C102        C590   1.480       .  S
In105       O107   2.231       .  S
In105       O108   2.244       .  S
In105       O116   2.212       .  S
In105       O110   2.238       .  S
In105       O112   2.258       .  S
In105       O113   2.234       .  S
In105       O114   2.213       .  S
In105       O117   2.228       .  S
C106        O112   1.263       .  A
C106        O114   1.258       .  A
C106        C573   1.483   1_565  S
O107        C115   1.260       .  A
O108        C115   1.263       .  A
C109        O116   1.261       .  A
C109        O110   1.263       .  A
C109        C307   1.473       .  S
C111        O113   1.263       .  A
C111        O117   1.261       .  A
C111        C296   1.483       .  S
C115        C450   1.492       .  S
In118       O120   2.234       .  S
In118       O121   2.217       .  S
In118       O129   2.219       .  S
In118       O123   2.240       .  S
In118       O125   2.237       .  S
In118       O126   2.241       .  S
In118       O127   2.227   1_655  S
In118       O130   2.230       .  S
C119        O125   1.259   1_455  A
C119        O127   1.257       .  A
C119        C408   1.470       .  S
O120        C128   1.264       .  A
O121        C128   1.263       .  A
C122        O129   1.259       .  A
C122        O123   1.260       .  A
C122        C310   1.470       .  S
C124        O126   1.258       .  A
C124        O130   1.257       .  A
C124        C618   1.477       .  S
C128        C279   1.480   1_655  S
In131       O133   2.244       .  S
In131       O134   2.226       .  S
In131       O142   2.229       .  S
In131       O136   2.249       .  S
In131       O138   2.268   1_545  S
In131       O139   2.236       .  S
In131       O140   2.218   1_545  S
In131       O143   2.243   1_545  S
C132        O138   1.264       .  A
C132        O140   1.258       .  A
C132        C506   1.482       .  S
O133        C141   1.262       .  A
O134        C141   1.262       .  A
C135        O142   1.258       .  A
C135        O136   1.262       .  A
C135        C265   1.484       .  S
C137        O139   1.259       .  A
C137        O143   1.260   1_545  A
C137        C293   1.479   1_545  S
C141        C324   1.482       .  S
In144       O146   2.241   1_655  S
In144       O147   2.231       .  S
In144       O155   2.226       .  S
In144       O149   2.251       .  S
In144       O151   2.260       .  S
In144       O152   2.251       .  S
In144       O153   2.218   1_655  S
In144       O156   2.227       .  S
C145        O151   1.262   1_455  A
C145        O153   1.257       .  A
C145        C366   1.476       .  S
O146        C154   1.263   1_455  A
O147        C154   1.262       .  A
C148        O155   1.259       .  A
C148        O149   1.263       .  A
C148        C268   1.495       .  S
C150        O152   1.261       .  A
C150        O156   1.258       .  A
C150        C492   1.484       .  S
C154        C251   1.476   1_655  S
In157       O159   2.228       .  S
In157       O160   2.227       .  S
In157       O168   2.214       .  S
In157       O162   2.253       .  S
In157       O164   2.238   1_545  S
In157       O165   2.238       .  S
In157       O166   2.218       .  S
In157       O169   2.236       .  S
C158        O164   1.264       .  A
C158        O166   1.259   1_565  A
C158        C436   1.472       .  S
O159        C167   1.261       .  A
O160        C167   1.263       .  A
C161        O168   1.259       .  A
C161        O162   1.263       .  A
C161        C237   1.482       .  S
C163        O165   1.262       .  A
C163        O169   1.261       .  A
C163        C223   1.488   1_545  S
C167        C562   1.484       .  S
In170       O172   2.234       .  S
In170       O173   2.243       .  S
In170       O181   2.222       .  S
In170       O175   2.237       .  S
In170       O177   2.264       .  S
In170       O178   2.246       .  S
In170       O179   2.211       .  S
In170       O182   2.229       .  S
C171        O177   1.264       .  A
C171        O179   1.259       .  A
C171        C604   1.486   1_455  S
O172        C180   1.261       .  A
O173        C180   1.264       .  A
C174        O181   1.261       .  A
C174        O175   1.263       .  A
C174        C240   1.479       .  S
C176        O178   1.263       .  A
C176        O182   1.260       .  A
C176        C394   1.497       .  S
C180        C254   1.490       .  S
In183       O185   2.243       .  S
In183       O186   2.220       .  S
In183       O194   2.225       .  S
In183       O188   2.246       .  S
In183       O190   2.247       .  S
In183       O191   2.244       .  S
In183       O192   2.217       .  S
In183       O195   2.235       .  S
C184        O190   1.260       .  A
C184        O192   1.257       .  A
C184        C478   1.467   1_455  S
O185        C193   1.264       .  A
O186        C193   1.262       .  A
C187        O194   1.260       .  A
C187        O188   1.261       .  A
C187        C212   1.479       .  S
C189        O191   1.259       .  A
C189        O195   1.258       .  A
C189        C349   1.481       .  S
C193        C282   1.483       .  S
In196       O198   2.250       .  S
In196       O199   2.240       .  S
In196       O207   2.225       .  S
In196       O201   2.249       .  S
In196       O203   2.263       .  S
In196       O204   2.219       .  S
In196       O205   2.240       .  S
In196       O208   2.240       .  S
C197        O203   1.260       .  A
C197        O205   1.255       .  A
C197        C335   1.485   1_565  S
O198        C206   1.259       .  A
O199        C206   1.258       .  A
C200        O207   1.258       .  A
C200        O201   1.262       .  A
C200        C209   1.478       .  S
C202        O204   1.262       .  A
C202        O208   1.265       .  A
C202        C226   1.492       .  S
C206        C517   1.487       .  S
C209        C210   1.412       .  A
C209        C214   1.413       .  A
C210        C211   1.407       .  A
C210        C215   1.452       .  S
C211        C212   1.412       .  A
C211        C218   1.452       .  S
C212        C213   1.413       .  A
C213        C214   1.411       .  A
C213        C216   1.451       .  S
C214        C217   1.452       .  S
C215        N222   1.157       .  T
C216        N221   1.157       .  T
C217        N219   1.157       .  T
C218        N220   1.157       .  T
C223        C224   1.413       .  A
C223        C228   1.415       .  A
C224        C225   1.410       .  A
C224        C229   1.453       .  S
C225        C226   1.419   1_556  A
C225        C232   1.453   1_556  S
C226        C227   1.417   1_554  A
C227        C228   1.411       .  A
C227        C230   1.452   1_556  S
C228        C231   1.452       .  S
C229        N236   1.157       .  T
C230        N235   1.157       .  T
C231        N233   1.157       .  T
C232        N234   1.158       .  T
C237        C238   1.415       .  A
C237        C242   1.414       .  A
C238        C239   1.407       .  A
C238        C243   1.452       .  S
C239        C240   1.411       .  A
C239        C246   1.453       .  S
C240        C241   1.413       .  A
C241        C242   1.411       .  A
C241        C244   1.451       .  S
C242        C245   1.452       .  S
C243        N250   1.158       .  T
C244        N249   1.158       .  T
C245        N247   1.157       .  T
C246        N248   1.157       .  T
C251        C252   1.410       .  A
C251        C256   1.408   1_454  A
C252        C253   1.411   1_554  A
C252        C257   1.451       .  S
C253        C254   1.417       .  A
C253        C260   1.451       .  S
C254        C255   1.419       .  A
C255        C256   1.410   1_455  A
C255        C258   1.451   1_455  S
C256        C259   1.452       .  S
C257        N264   1.157       .  T
C258        N263   1.157       .  T
C259        N261   1.157   1_556  T
C260        N262   1.157       .  T
C265        C266   1.411       .  A
C265        C270   1.413       .  A
C266        C267   1.412       .  A
C266        C271   1.452       .  S
C267        C268   1.419       .  A
C267        C274   1.451       .  S
C268        C269   1.420       .  A
C269        C270   1.409       .  A
C269        C272   1.453       .  S
C270        C273   1.454       .  S
C271        N278   1.157       .  T
C272        N277   1.157       .  T
C273        N275   1.157       .  T
C274        N276   1.157       .  T
C279        C280   1.413       .  A
C279        C284   1.412       .  A
C280        C281   1.407   1_556  A
C280        C285   1.454       .  S
C281        C282   1.415       .  A
C281        C288   1.453       .  S
C282        C283   1.414       .  A
C283        C284   1.411   1_554  A
C283        C286   1.451       .  S
C284        C287   1.451       .  S
C285        N292   1.158   1_455  T
C286        N291   1.157       .  T
C287        N289   1.157       .  T
C288        N290   1.158       .  T
C293        C294   1.412       .  A
C293        C298   1.412   1_564  A
C294        C295   1.409   1_554  A
C294        C299   1.452       .  S
C295        C296   1.414       .  A
C295        C302   1.452       .  S
C296        C297   1.415   1_565  A
C297        C298   1.409       .  A
C297        C300   1.452       .  S
C298        C301   1.452       .  S
C299        N306   1.157       .  T
C300        N305   1.157       .  T
C301        N303   1.157       .  T
C302        N304   1.157       .  T
C307        C308   1.411       .  A
C307        C312   1.412       .  A
C308        C309   1.405       .  A
C308        C313   1.452       .  S
C309        C310   1.409       .  A
C309        C316   1.451       .  S
C310        C311   1.412       .  A
C311        C312   1.409       .  A
C311        C314   1.452       .  S
C312        C315   1.452       .  S
C313        N320   1.157       .  T
C314        N319   1.157       .  T
C315        N317   1.157       .  T
C316        N318   1.157       .  T
C321        C322   1.409       .  A
C321        C326   1.412       .  A
C322        C323   1.411       .  A
C322        C327   1.451       .  S
C323        C324   1.415       .  A
C323        C330   1.450       .  S
C324        C325   1.415       .  A
C325        C326   1.406       .  A
C325        C328   1.453       .  S
C326        C329   1.453       .  S
C327        N334   1.157       .  T
C328        N333   1.157       .  T
C329        N331   1.157       .  T
C330        N332   1.157       .  T
C335        C336   1.412       .  A
C335        C340   1.413       .  A
C336        C337   1.410       .  A
C336        C341   1.452   1_545  S
C337        C338   1.419       .  A
C337        C344   1.452       .  S
C338        C339   1.416       .  A
C339        C340   1.411       .  A
C339        C342   1.452       .  S
C340        C343   1.452       .  S
C341        N348   1.157       .  T
C342        N347   1.157       .  T
C343        N345   1.158       .  T
C344        N346   1.158       .  T
C349        C350   1.412       .  A
C349        C354   1.411       .  A
C350        C351   1.409       .  A
C350        C355   1.453       .  S
C351        C352   1.417       .  A
C351        C358   1.453       .  S
C352        C353   1.416       .  A
C353        C354   1.411       .  A
C353        C356   1.451       .  S
C354        C357   1.452       .  S
C355        N362   1.157       .  T
C356        N361   1.157       .  T
C357        N359   1.157       .  T
C358        N360   1.158       .  T
C363        C364   1.420       .  A
C363        C368   1.417       .  A
C364        C365   1.411       .  A
C364        C369   1.452       .  S
C365        C366   1.410       .  A
C365        C372   1.452       .  S
C366        C367   1.408       .  A
C367        C368   1.408       .  A
C367        C370   1.451       .  S
C368        C371   1.451       .  S
C369        N376   1.158       .  T
C370        N375   1.157       .  T
C371        N373   1.157       .  T
C372        N374   1.157   1_455  T
C377        C378   1.415       .  A
C377        C382   1.417       .  A
C378        C379   1.407       .  A
C378        C383   1.453       .  S
C379        C380   1.413       .  A
C379        C386   1.453       .  S
C380        C381   1.412       .  A
C381        C382   1.411       .  A
C381        C384   1.452       .  S
C382        C385   1.451       .  S
C383        N390   1.158       .  T
C384        N389   1.157       .  T
C385        N387   1.157       .  T
C386        N388   1.157       .  T
C391        C392   1.410       .  A
C391        C396   1.410       .  A
C392        C393   1.413       .  A
C392        C397   1.451       .  S
C393        C394   1.420       .  A
C393        C400   1.451       .  S
C394        C395   1.421       .  A
C395        C396   1.409       .  A
C395        C398   1.452       .  S
C396        C399   1.454       .  S
C397        N404   1.158       .  T
C398        N403   1.158       .  T
C399        N401   1.157       .  T
C400        N402   1.157       .  T
C405        C406   1.415       .  A
C405        C410   1.414       .  A
C406        C407   1.407       .  A
C406        C411   1.453       .  S
C407        C408   1.411       .  A
C407        C414   1.452       .  S
C408        C409   1.409       .  A
C409        C410   1.407       .  A
C409        C412   1.452       .  S
C410        C413   1.451       .  S
C411        N418   1.156       .  T
C412        N417   1.156       .  T
C413        N415   1.158       .  T
C414        N416   1.158   1_455  T
C419        C420   1.413       .  A
C419        C424   1.414       .  A
C420        C421   1.411       .  A
C420        C425   1.452       .  S
C421        C422   1.416       .  A
C421        C428   1.451       .  S
C422        C423   1.416       .  A
C423        C424   1.408       .  A
C423        C426   1.453       .  S
C424        C427   1.453       .  S
C425        N432   1.157       .  T
C426        N431   1.157       .  T
C427        N429   1.158       .  T
C428        N430   1.157       .  T
C433        C434   1.412       .  A
C433        C438   1.414       .  A
C434        C435   1.407       .  A
C434        C439   1.451       .  S
C435        C436   1.409       .  A
C435        C442   1.451       .  S
C436        C437   1.412       .  A
C437        C438   1.408       .  A
C437        C440   1.453       .  S
C438        C441   1.452       .  S
C439        N446   1.157       .  T
C440        N445   1.158   1_565  T
C441        N443   1.158       .  T
C442        N444   1.157       .  T
C447        C448   1.413       .  A
C447        C452   1.413       .  A
C448        C449   1.413       .  A
C448        C453   1.451       .  S
C449        C450   1.416       .  A
C449        C456   1.451       .  S
C450        C451   1.418       .  A
C451        C452   1.408       .  A
C451        C454   1.452       .  S
C452        C455   1.453       .  S
C453        N460   1.157       .  T
C454        N459   1.157       .  T
C455        N457   1.157       .  T
C456        N458   1.157       .  T
C461        C462   1.419       .  A
C461        C466   1.416       .  A
C462        C463   1.408       .  A
C462        C467   1.454       .  S
C463        C464   1.413       .  A
C463        C470   1.454       .  S
C464        C465   1.413       .  A
C465        C466   1.412       .  A
C465        C468   1.452       .  S
C466        C469   1.451       .  S
C467        N474   1.157       .  T
C468        N473   1.157       .  T
C469        N471   1.157       .  T
C470        N472   1.158       .  T
C475        C476   1.420       .  A
C475        C480   1.416       .  A
C476        C477   1.408   1_655  A
C476        C481   1.452       .  S
C477        C478   1.408   1_455  A
C477        C484   1.453       .  S
C478        C479   1.406       .  A
C479        C480   1.406       .  A
C479        C482   1.451       .  S
C480        C483   1.452       .  S
C481        N488   1.157       .  T
C482        N487   1.157       .  T
C483        N485   1.157       .  T
C484        N486   1.157       .  T
C489        C490   1.415       .  A
C489        C494   1.411       .  A
C490        C491   1.410       .  A
C490        C495   1.453       .  S
C491        C492   1.415       .  A
C491        C498   1.452       .  S
C492        C493   1.415       .  A
C493        C494   1.408       .  A
C493        C496   1.451       .  S
C494        C497   1.451       .  S
C495        N502   1.158       .  T
C496        N501   1.157       .  T
C497        N499   1.157       .  T
C498        N500   1.158   1_655  T
C503        C504   1.415       .  A
C503        C508   1.415       .  A
C504        C505   1.408       .  A
C504        C509   1.452       .  S
C505        C506   1.413       .  A
C505        C512   1.453       .  S
C506        C507   1.411       .  A
C507        C508   1.413       .  A
C507        C510   1.450       .  S
C508        C511   1.451       .  S
C509        N516   1.157       .  T
C510        N515   1.157       .  T
C511        N513   1.157       .  T
C512        N514   1.157   1_565  T
C517        C518   1.416       .  A
C517        C522   1.417       .  A
C518        C519   1.406       .  A
C518        C523   1.451       .  S
C519        C520   1.409       .  A
C519        C526   1.453       .  S
C520        C521   1.408       .  A
C521        C522   1.413       .  A
C521        C524   1.450       .  S
C522        C525   1.451       .  S
C523        N530   1.157       .  T
C524        N529   1.157       .  T
C525        N527   1.157       .  T
C526        N528   1.157       .  T
C531        C532   1.413       .  A
C531        C536   1.413       .  A
C532        C533   1.407       .  A
C532        C537   1.453       .  S
C533        C534   1.416       .  A
C533        C540   1.453       .  S
C534        C535   1.415       .  A
C535        C536   1.411       .  A
C535        C538   1.452       .  S
C536        C539   1.450       .  S
C537        N544   1.157       .  T
C538        N543   1.158       .  T
C539        N541   1.157       .  T
C540        N542   1.158       .  T
C545        C546   1.413       .  A
C545        C550   1.414       .  A
C546        C547   1.408       .  A
C546        C551   1.453       .  S
C547        C548   1.414       .  A
C547        C554   1.452       .  S
C548        C549   1.415       .  A
C549        C550   1.412       .  A
C549        C552   1.451       .  S
C550        C553   1.452       .  S
C551        N558   1.157       .  T
C552        N557   1.157       .  T
C553        N555   1.157       .  T
C554        N556   1.157       .  T
C559        C560   1.408       .  A
C559        C564   1.410       .  A
C560        C561   1.409       .  A
C560        C565   1.452       .  S
C561        C562   1.417       .  A
C561        C568   1.451       .  S
C562        C563   1.417       .  A
C563        C564   1.407       .  A
C563        C566   1.452       .  S
C564        C567   1.453       .  S
C565        N572   1.157       .  T
C566        N571   1.157       .  T
C567        N569   1.157       .  T
C568        N570   1.157       .  T
C573        C574   1.414       .  A
C573        C578   1.414       .  A
C574        C575   1.407       .  A
C574        C579   1.453   1_545  S
C575        C576   1.413       .  A
C575        C582   1.453       .  S
C576        C577   1.413       .  A
C577        C578   1.413       .  A
C577        C580   1.451       .  S
C578        C581   1.451       .  S
C579        N586   1.158       .  T
C580        N585   1.157       .  T
C581        N583   1.157       .  T
C582        N584   1.157       .  T
C587        C588   1.415       .  A
C587        C592   1.414       .  A
C588        C589   1.407       .  A
C588        C593   1.453       .  S
C589        C590   1.412       .  A
C589        C596   1.452       .  S
C590        C591   1.413       .  A
C591        C592   1.410       .  A
C591        C594   1.451       .  S
C592        C595   1.451       .  S
C593        N600   1.158       .  T
C594        N599   1.157       .  T
C595        N597   1.157       .  T
C596        N598   1.157       .  T
C601        C602   1.415       .  A
C601        C606   1.416       .  A
C602        C603   1.413       .  A
C602        C607   1.451       .  S
C603        C604   1.413       .  A
C603        C610   1.450   1_655  S
C604        C605   1.414       .  A
C605        C606   1.408       .  A
C605        C608   1.454       .  S
C606        C609   1.452       .  S
C607        N614   1.157       .  T
C608        N613   1.157       .  T
C609        N611   1.158       .  T
C610        N612   1.158       .  T
C615        C616   1.415       .  A
C615        C620   1.413       .  A
C616        C617   1.407       .  A
C616        C621   1.453       .  S
C617        C618   1.412       .  A
C617        C624   1.453       .  S
C618        C619   1.412       .  A
C619        C620   1.410       .  A
C619        C622   1.452       .  S
C620        C623   1.450       .  S
C621        N628   1.157       .  T
C622        N627   1.157       .  T
C623        N625   1.157       .  T
C624        N626   1.158       .  T
C629        C630   1.412       .  A
C629        C634   1.414       .  A
C630        C631   1.408       .  A
C630        C635   1.452       .  S
C631        C632   1.415       .  A
C631        C638   1.452       .  S
C632        C633   1.413       .  A
C633        C634   1.410       .  A
C633        C636   1.452       .  S
C634        C637   1.452       .  S
C635        N642   1.157       .  T
C636        N641   1.157       .  T
C637        N639   1.157       .  T
C638        N640   1.157       .  T
C643        C644   1.415       .  A
C643        C648   1.414       .  A
C644        C645   1.407       .  A
C644        C649   1.452       .  S
C645        C646   1.410       .  A
C645        C652   1.453       .  S
C646        C647   1.411       .  A
C647        C648   1.408       .  A
C647        C650   1.452       .  S
C648        C651   1.451       .  S
C649        N656   1.157       .  T
C650        N655   1.157       .  T
C651        N653   1.157       .  T
C652        N654   1.157       .  T
