geometry optimzed in LAMMPS
_audit_creation_date              2020-12-01 
_audit_creation_method            'lammps2cif' 
_symmetry_space_group_name_H-M    'P1' 
_symmetry_Int_Tables_number       1 
_symmetry_cell_setting            triclinic 
loop_ 
_symmetry_equiv_pos_as_xyz 
  x,y,z 
_cell_length_a                    39.93295622 
_cell_length_b                    39.87694320854931 
_cell_length_c                    39.897325154220304 
_cell_angle_alpha                 90.09666715320222 
_cell_angle_beta                  89.962701362092 
_cell_angle_gamma                 90.07031433980481 
loop_ 
_atom_site_label 
_atom_site_type_symbol 
_atom_site_fract_x 
_atom_site_fract_y 
_atom_site_fract_z 
_atom_site_charge 
O1          O  0.58120133  0.32265228  0.87111650    -0.72100
O2          O  0.66836432  0.28589341  0.88020990    -0.72300
O3          O  0.62179823  0.28620331  0.83195184    -0.72200
O4          O  0.62812775  0.32247056  0.91970874    -0.72200
O5          O  0.60711587  0.27671654  0.94014989    -0.72200
O6          O  0.60024138  0.24058250  0.85226979    -0.72200
O7          O  0.64704199  0.23997935  0.90008225    -0.72100
O8          O  0.55991319  0.27719764  0.89191265    -0.72300
V9          V  0.62439840  0.30347585  0.87622121     1.35200
V10         V  0.60390321  0.25957003  0.89579133     1.35200
C11         C  0.55555003  0.30596722  0.87942367     0.77100
C12         C  0.67260417  0.25644713  0.89112958     0.77200
C13         C  0.61043363  0.25698319  0.82714695     0.77100
C14         C  0.61949421  0.30554482  0.94504739     0.77000
O15         O  0.33707253  0.62336443  0.91384104    -0.72100
O16         O  0.30258512  0.61160345  0.82596199    -0.72300
O17         O  0.30103300  0.66094718  0.87179648    -0.72200
O18         O  0.33864185  0.57391524  0.86772656    -0.72200
O19         O  0.29271413  0.55277980  0.88755229    -0.72200
O20         O  0.25555191  0.64023782  0.89327137    -0.72200
O21         O  0.25646722  0.59173462  0.84684680    -0.72100
O22         O  0.29182066  0.60156197  0.93451913    -0.72300
V23         V  0.31899204  0.61700459  0.87030557     1.35200
V24         V  0.27506500  0.59693717  0.89024321     1.35200
C25         C  0.32015639  0.61487670  0.93927163     0.77100
C26         C  0.27350861  0.59988360  0.82141086     0.77200
C27         C  0.27188904  0.66550564  0.88324804     0.77100
C28         C  0.32172608  0.54834022  0.87558335     0.77000
O29         O  0.39708889  0.33922478  0.85560166    -0.72100
O30         O  0.31035391  0.34793563  0.81770025    -0.72300
O31         O  0.35776284  0.30035924  0.81757880    -0.72200
O32         O  0.34922237  0.38708004  0.85575699    -0.72200
O33         O  0.37143640  0.40867531  0.81109812    -0.72200
O34         O  0.37901221  0.32203043  0.77245887    -0.72200
O35         O  0.33217568  0.36982751  0.77293792    -0.72100
O36         O  0.41877633  0.36063876  0.81061202    -0.72300
V37         V  0.35409291  0.34410657  0.83584662     1.35200
V38         V  0.37500905  0.36494951  0.79272594     1.35200
C39         C  0.42287520  0.34773572  0.83923347     0.77100
C40         C  0.30649117  0.36023476  0.78877603     0.77200
C41         C  0.36955657  0.29637295  0.78845862     0.77100
C42         C  0.35806137  0.41281524  0.83956142     0.77000
O43         O  0.63083243  0.56837766  0.16155280    -0.72100
O44         O  0.62712223  0.65514845  0.20037846    -0.72300
O45         O  0.67227529  0.60556573  0.19881869    -0.72200
O46         O  0.58554851  0.61840092  0.16279353    -0.72200
O47         O  0.56340127  0.59722494  0.20767268    -0.72200
O48         O  0.65074747  0.58472696  0.24412243    -0.72200
O49         O  0.60517031  0.63418828  0.24545836    -0.72100
O50         O  0.60905391  0.54735742  0.20668161    -0.72300
V51         V  0.62844372  0.61139702  0.18173644     1.35200
V52         V  0.60744034  0.59119659  0.22508332     1.35200
C53         C  0.62149728  0.54288473  0.17787293     0.77100
C54         C  0.61550024  0.65956431  0.22953917     0.77200
C55         C  0.67651088  0.59335984  0.22771497     0.77100
C56         C  0.55960493  0.61085427  0.17926118     0.77000
O57         O  0.68630324  0.35514064  0.08300811    -0.72100
O58         O  0.72668950  0.36660671  0.16846785    -0.72300
O59         O  0.72655311  0.31817127  0.12228705    -0.72200
O60         O  0.68658072  0.40398847  0.12950624    -0.72200
O61         O  0.64288700  0.38180065  0.15304552    -0.72200
O62         O  0.68275059  0.29589352  0.14567900    -0.72200
O63         O  0.68277718  0.34464434  0.19192819    -0.72100
O64         O  0.64272475  0.33276894  0.10652160    -0.72300
V65         V  0.70561352  0.36061694  0.12618986     1.35200
V66         V  0.66359208  0.33924400  0.14878090     1.35200
C67         C  0.65786982  0.34137509  0.08008554     0.77100
C68         C  0.71175661  0.35712669  0.19475779     0.77200
C69         C  0.71160591  0.29243804  0.13311341     0.77100
C70         C  0.65824149  0.40768710  0.14316643     0.77000
O71         O  0.42286929  0.68034396  0.12613477    -0.72100
O72         O  0.33652786  0.71979728  0.11776306    -0.72300
O73         O  0.38365913  0.71805800  0.16561452    -0.72200
O74         O  0.37542240  0.68226174  0.07775122    -0.72200
O75         O  0.35286256  0.63719404  0.09809378    -0.72200
O76         O  0.36126397  0.67286423  0.18588578    -0.72200
O77         O  0.31430717  0.67454812  0.13808590    -0.72100
O78         O  0.40018641  0.63532220  0.14646639    -0.72300
V79         V  0.37927948  0.69918681  0.12210387     1.35200
V80         V  0.35766408  0.65581570  0.14164660     1.35200
C81         C  0.42632939  0.65150725  0.13893494     0.77100
C82         C  0.31061942  0.70392255  0.12684013     0.77200
C83         C  0.37373649  0.70160278  0.19081199     0.77100
C84         C  0.36178978  0.65404993  0.07277916     0.77000
O85         O  0.60814948  0.17995146  0.58021921    -0.72100
O86         O  0.60204569  0.21767090  0.66751020    -0.72300
O87         O  0.64857984  0.21702799  0.61931762    -0.72200
O88         O  0.56128344  0.18061088  0.62874046    -0.72200
O89         O  0.58238187  0.13504179  0.64936244    -0.72200
O90         O  0.66969403  0.17183090  0.64067174    -0.72200
O91         O  0.62258542  0.17196128  0.68851642    -0.72100
O92         O  0.62966751  0.13474550  0.60123136    -0.72300
V93         V  0.60536097  0.19788232  0.62428360     1.35200
V94         V  0.62563595  0.15422623  0.64446945     1.35200
C95         C  0.62045277  0.15108004  0.57571270     0.77100
C96         C  0.61158380  0.20136090  0.69291844     0.77200
C97         C  0.67405549  0.20100203  0.62900991     0.77100
C98         C  0.55680741  0.15180989  0.64123068     0.77000
O99         O  0.68903750  0.09743026  0.43986517    -0.72100
O100        O  0.73065598  0.09175014  0.35453892    -0.72300
O101        O  0.72696915  0.13849304  0.40242112    -0.72200
O102        O  0.69285679  0.05027583  0.39147938    -0.72200
O103        O  0.64797730  0.07034847  0.36854008    -0.72200
O104        O  0.68219629  0.15886466  0.37934943    -0.72200
O105        O  0.68568224  0.11157651  0.33138383    -0.72100
O106        O  0.64433480  0.11798302  0.41687245    -0.72300
V107        V  0.70891145  0.09482225  0.39672233     1.35200
V108        V  0.66583496  0.11423498  0.37454470     1.35200
C109        C  0.65994681  0.10951199  0.44308834     0.77100
C110        C  0.71537000  0.10095687  0.32841202     0.77200
C111        C  0.71070636  0.16371567  0.39231936     0.77100
C112        C  0.66502219  0.04508418  0.37724719     0.77000
O113        O  0.39632419  0.12182723  0.66256933    -0.72100
O114        O  0.30996247  0.10881684  0.70014536    -0.72300
O115        O  0.35482048  0.15915001  0.69959734    -0.72200
O116        O  0.35162056  0.07110321  0.66311350    -0.72200
O117        O  0.37173115  0.05147381  0.70955150    -0.72200
O118        O  0.37985620  0.13977494  0.74371824    -0.72200
O119        O  0.33271237  0.09214709  0.74663844    -0.72100
O120        O  0.41882367  0.09960002  0.70676702    -0.72300
V121        V  0.35361388  0.11477611  0.68217047     1.35200
V122        V  0.37535025  0.09601993  0.72575557     1.35200
C123        C  0.42234341  0.11338912  0.67845395     0.77100
C124        C  0.30662152  0.09918465  0.73013520     0.77200
C125        C  0.36846428  0.16458244  0.72769880     0.77100
C126        C  0.36051610  0.04608453  0.68042148     0.77000
O127        O  0.29831986  0.90814651  0.62516136    -0.72100
O128        O  0.25761294  0.82212107  0.62075140    -0.72300
O129        O  0.25985179  0.87131977  0.66605491    -0.72200
O130        O  0.29600141  0.85883923  0.57927652    -0.72200
O131        O  0.34152615  0.83863836  0.60096246    -0.72200
O132        O  0.30328952  0.84711570  0.68786936    -0.72200
O133        O  0.30328661  0.79972854  0.63998620    -0.72100
O134        O  0.34182614  0.88619691  0.64922199    -0.72300
V135        V  0.27887993  0.86472024  0.62314870     1.35200
V136        V  0.32170852  0.84339822  0.64404127     1.35200
C137        C  0.32651018  0.91197253  0.63908133     0.77100
C138        C  0.27358375  0.79626250  0.62964133     0.77200
C139        C  0.27483081  0.86054205  0.69171584     0.77100
C140        C  0.32485119  0.84653502  0.57519453     0.77000
O141        O  0.56864939  0.85647999  0.31260049    -0.72100
O142        O  0.65498979  0.86378546  0.27370773    -0.72300
O143        O  0.60752421  0.81657575  0.27495462    -0.72200
O144        O  0.61665366  0.90408710  0.31147114    -0.72200
O145        O  0.63976570  0.88310395  0.35592364    -0.72200
O146        O  0.62819043  0.79533250  0.32051352    -0.72200
O147        O  0.67686647  0.84171351  0.31822305    -0.72100
O148        O  0.59048004  0.83638800  0.35807685    -0.72300
V149        V  0.61229312  0.85988283  0.29414688     1.35200
V150        V  0.63334042  0.83961974  0.33740619     1.35200
C151        C  0.56462864  0.84441065  0.34161886     0.77100
C152        C  0.68068886  0.85356932  0.28906977     0.77200
C153        C  0.61652761  0.79102913  0.29137133     0.77100
C154        C  0.63087329  0.90865070  0.33944043     0.77000
O155        O  0.42422736  0.78020382  0.38957792    -0.72100
O156        O  0.33735498  0.74179311  0.39515574    -0.72300
O157        O  0.38534021  0.74358892  0.34858086    -0.72200
O158        O  0.37584358  0.77847085  0.43650570    -0.72200
O159        O  0.35552252  0.82457929  0.41623076    -0.72200
O160        O  0.36326693  0.78896530  0.32825973    -0.72200
O161        O  0.31576250  0.78798142  0.37620269    -0.72100
O162        O  0.40311695  0.82542927  0.36815718    -0.72300
V163        V  0.38033734  0.76198305  0.39213201     1.35200
V164        V  0.35985322  0.80590870  0.37264827     1.35200
C165        C  0.42868775  0.80896484  0.37699200     0.77100
C166        C  0.31175899  0.75822202  0.38644822     0.77200
C167        C  0.37554314  0.76014484  0.32345839     0.77100
C168        C  0.36376192  0.80733667  0.44148839     0.77000
O169        O  0.13310292  0.82599013  0.09829593    -0.72100
O170        O  0.12469403  0.78998988  0.18571647    -0.72300
O171        O  0.17273119  0.78989191  0.13842812    -0.72200
O172        O  0.08517839  0.82607642  0.14535370    -0.72200
O173        O  0.06474368  0.78070327  0.12328506    -0.72200
O174        O  0.15187637  0.74355725  0.11876390    -0.72200
O175        O  0.10319604  0.74450806  0.16488234    -0.72100
O176        O  0.11364559  0.77985259  0.07713408    -0.72300
V177        V  0.12850240  0.80711776  0.14152688     1.35200
V178        V  0.10871834  0.76306309  0.12139124     1.35200
C179        C  0.12552189  0.80894320  0.07270998     0.77100
C180        C  0.11247134  0.76110571  0.19030115     0.77200
C181        C  0.17717445  0.76034698  0.12778120     0.77100
C182        C  0.05998682  0.80954100  0.13553000     0.77000
O183        O  0.92200033  0.85862447  0.20112221    -0.72100
O184        O  0.83571672  0.86493135  0.23958669    -0.72300
O185        O  0.88335660  0.81817073  0.23818960    -0.72200
O186        O  0.87425123  0.90553619  0.20234722    -0.72200
O187        O  0.85229025  0.88469101  0.15712549    -0.72200
O188        O  0.86214291  0.79704377  0.19271573    -0.72200
O189        O  0.81385616  0.84401152  0.19429659    -0.72100
O190        O  0.90065049  0.83779038  0.15562285    -0.72300
V191        V  0.87843879  0.86144740  0.21935445     1.35200
V192        V  0.85766845  0.84130764  0.17575680     1.35200
C193        C  0.92620461  0.84692021  0.17200762     0.77100
C194        C  0.81009247  0.85530443  0.22371115     0.77200
C195        C  0.87414386  0.79269305  0.22170386     0.77100
C196        C  0.86125244  0.91010022  0.17384931     0.77000
O197        O  0.14429524  0.83918036  0.91157178    -0.72100
O198        O  0.18373041  0.85097241  0.82569096    -0.72300
O199        O  0.18257739  0.80178238  0.87112740    -0.72200
O200        O  0.14512129  0.88880007  0.86573117    -0.72200
O201        O  0.18969736  0.90976816  0.88880124    -0.72200
O202        O  0.22716182  0.82242460  0.89443846    -0.72200
O203        O  0.22841193  0.87140942  0.84905614    -0.72100
O204        O  0.18881746  0.86046019  0.93444766    -0.72300
V205        V  0.16472345  0.84568797  0.86900773     1.35200
V206        V  0.20758067  0.86569421  0.89129240     1.35200
C207        C  0.16025240  0.84721651  0.93775308     0.77100
C208        C  0.21322823  0.86225173  0.82284800     0.77200
C209        C  0.21133214  0.79719998  0.88344565     0.77100
C210        C  0.16113409  0.91421969  0.87588187     0.77000
O211        O  0.10917361  0.05309873  0.81139371    -0.72100
O212        O  0.10265745  0.13991272  0.77422512    -0.72300
O213        O  0.14961479  0.09234166  0.77494815    -0.72200
O214        O  0.06193527  0.10087147  0.81106665    -0.72200
O215        O  0.08279674  0.12170411  0.85682324    -0.72200
O216        O  0.17025251  0.11400626  0.82032364    -0.72200
O217        O  0.12260854  0.16153098  0.82008110    -0.72100
O218        O  0.13055748  0.07380996  0.85687760    -0.72300
V219        V  0.10616531  0.09695530  0.79387436     1.35200
V220        V  0.12610440  0.11731719  0.83772068     1.35200
C221        C  0.12160854  0.04836388  0.84007086     0.77100
C222        C  0.11200431  0.16544545  0.79046760     0.77200
C223        C  0.17498186  0.10199643  0.79135427     0.77100
C224        C  0.05738220  0.11305023  0.84000864     0.77000
O225        O  0.79741082  0.09934794  0.08395060    -0.72100
O226        O  0.76014529  0.08954129  0.17074589    -0.72300
O227        O  0.76024699  0.13766797  0.12447820    -0.72200
O228        O  0.79742111  0.05081319  0.13032600    -0.72200
O229        O  0.84288310  0.07163185  0.15163546    -0.72200
O230        O  0.80509349  0.15879729  0.14682786    -0.72200
O231        O  0.80551184  0.10984025  0.19271685    -0.72100
O232        O  0.84227882  0.12116326  0.10563181    -0.72300
V233        V  0.77976269  0.09467189  0.12777992     1.35200
V234        V  0.82317045  0.11485216  0.14875922     1.35200
C235        C  0.82570724  0.11297042  0.07990449     0.77100
C236        C  0.77608620  0.09866819  0.19655390     0.77200
C237        C  0.77609921  0.16305473  0.13489416     0.77100
C238        C  0.82632983  0.04623225  0.14229486     0.77000
O239        O  0.89782567  0.13139118  0.87030281    -0.72100
O240        O  0.80938124  0.16630934  0.87749431    -0.72300
O241        O  0.85725022  0.16623904  0.82978923    -0.72200
O242        O  0.84992594  0.13135622  0.91812392    -0.72200
O243        O  0.86924710  0.17804903  0.93807517    -0.72200
O244        O  0.87769299  0.21242953  0.85003976    -0.72200
O245        O  0.82966738  0.21297252  0.89682582    -0.72100
O246        O  0.91745900  0.17767238  0.89106950    -0.72300
V247        V  0.85398505  0.14964794  0.87435190     1.35200
V248        V  0.87314655  0.19430658  0.89365308     1.35200
C249        C  0.92285255  0.14889384  0.87895529     0.77100
C250        C  0.80447656  0.19579410  0.88821958     0.77200
C251        C  0.86889371  0.19532819  0.82482330     0.77100
C252        C  0.85769586  0.14898317  0.94331634     0.77000
O253        O  0.19415617  0.55041524  0.62364321    -0.72100
O254        O  0.23082789  0.63801239  0.61622097    -0.72300
O255        O  0.23153464  0.58996296  0.66315558    -0.72200
O256        O  0.19314423  0.59873325  0.57629587    -0.72200
O257        O  0.14842509  0.62013346  0.59855862    -0.72200
O258        O  0.18611355  0.61035380  0.68491764    -0.72200
O259        O  0.18598923  0.65882672  0.63868777    -0.72100
O260        O  0.14895769  0.57140085  0.64525550    -0.72300
V261        V  0.21151454  0.59465021  0.62012934     1.35200
V262        V  0.16820779  0.61471820  0.64131724     1.35200
C263        C  0.16566123  0.54585057  0.63674178     0.77100
C264        C  0.21502946  0.66336830  0.62683041     0.77200
C265        C  0.21515554  0.59856008  0.68894046     0.77100
C266        C  0.16446554  0.61172853  0.57259434     0.77000
O267        O  0.08595815  0.33690425  0.65930735    -0.72100
O268        O  0.17239777  0.34650599  0.69753869    -0.72300
O269        O  0.12471138  0.29925061  0.69899997    -0.72200
O270        O  0.13429790  0.38460566  0.65806353    -0.72200
O271        O  0.11296449  0.40796908  0.70226830    -0.72200
O272        O  0.10220259  0.32257916  0.74263942    -0.72200
O273        O  0.15041540  0.36916708  0.74186797    -0.72100
O274        O  0.06419946  0.36110564  0.70288823    -0.72300
V275        V  0.12881243  0.34230949  0.67924202     1.35200
V276        V  0.10776058  0.36482056  0.72146990     1.35200
C277        C  0.06018145  0.34658896  0.67496121     0.77100
C278        C  0.17615730  0.35925985  0.72630891     0.77200
C279        C  0.11229500  0.29631698  0.72804360     0.77100
C280        C  0.12659499  0.41102682  0.67380389     0.77000
O281        O  0.06527452  0.67960188  0.38653495    -0.72100
O282        O  0.15265552  0.71637068  0.39631567    -0.72300
O283        O  0.10545005  0.71766079  0.34836485    -0.72200
O284        O  0.11266751  0.67819159  0.43471933    -0.72200
O285        O  0.13450371  0.63364121  0.41250644    -0.72200
O286        O  0.12596623  0.67239962  0.32621927    -0.72200
O287        O  0.17378405  0.67176414  0.37357860    -0.72100
O288        O  0.08651418  0.63452559  0.36483030    -0.72300
V289        V  0.10937596  0.69704380  0.39113704     1.35200
V290        V  0.12975104  0.65392150  0.36978225     1.35200
C291        C  0.06084738  0.65110191  0.37322192     0.77100
C292        C  0.17821411  0.70055129  0.38627250     0.77200
C293        C  0.11421049  0.70156012  0.32245992     0.77100
C294        C  0.12566093  0.64950247  0.43848029     0.77000
O295        O  0.87289796  0.27935733  0.58098706    -0.72100
O296        O  0.88101873  0.23981791  0.66714035    -0.72300
O297        O  0.83354976  0.24087044  0.61991441    -0.72200
O298        O  0.92067862  0.27843569  0.62859989    -0.72200
O299        O  0.89914485  0.32332545  0.65030112    -0.72200
O300        O  0.81237657  0.28553559  0.64274172    -0.72200
O301        O  0.86050621  0.28499576  0.68953503    -0.72100
O302        O  0.85086904  0.32376516  0.60332310    -0.72300
V303        V  0.87669749  0.26053337  0.62450556     1.35200
V304        V  0.85619462  0.30355106  0.64601504     1.35200
C305        C  0.85977640  0.30799149  0.57731259     0.77100
C306        C  0.87199648  0.25568035  0.69306933     0.77200
C307        C  0.80812991  0.25666937  0.63031661     0.77100
C308        C  0.92486856  0.30718435  0.64146983     0.77000
O309        O  0.85324252  0.57188313  0.35174070    -0.72100
O310        O  0.85963981  0.65763098  0.31149644    -0.72300
O311        O  0.81351135  0.60845575  0.31250706    -0.72200
O312        O  0.89965696  0.62124377  0.35073802    -0.72200
O313        O  0.92241884  0.59771616  0.30735842    -0.72200
O314        O  0.83638877  0.58770043  0.26764238    -0.72200
O315        O  0.88356306  0.63566038  0.26785221    -0.72100
O316        O  0.87485261  0.54927552  0.30724851    -0.72300
V317        V  0.85702337  0.61432810  0.33079017     1.35200
V318        V  0.87894139  0.59291450  0.28842719     1.35200
C319        C  0.86169189  0.54576187  0.33591799     0.77100
C320        C  0.87292117  0.66143261  0.28299161     0.77200
C321        C  0.81027573  0.59630303  0.28340332     0.77100
C322        C  0.92586098  0.61247111  0.33527429     0.77000
O323        O  0.83921860  0.38576271  0.36807925    -0.72100
O324        O  0.80081831  0.29938633  0.37881022    -0.72300
O325        O  0.80042145  0.34607550  0.33047397    -0.72200
O326        O  0.83959017  0.33882005  0.41678648    -0.72200
O327        O  0.79499187  0.36046789  0.43900546    -0.72200
O328        O  0.75639248  0.36906303  0.35251900    -0.72200
O329        O  0.75605261  0.32164651  0.40008786    -0.72100
O330        O  0.79533511  0.40817213  0.39094445    -0.72300
V331        V  0.81920187  0.34300833  0.37404370     1.35200
V332        V  0.77661276  0.36449848  0.39529349     1.35200
C333        C  0.82350629  0.41184120  0.37681642     0.77100
C334        C  0.77179536  0.29566070  0.39094320     0.77200
C335        C  0.77160011  0.35863352  0.32673933     0.77100
C336        C  0.82351048  0.34721947  0.44277438     0.77000
C337        C  0.87083612  0.48389380  0.33559139    -0.26700
C338        C  0.85481701  0.51186644  0.34972328    -0.14700
C339        C  0.83039028  0.50664544  0.37484614     0.35900
C340        C  0.82167736  0.47390206  0.38432059    -0.26100
C341        C  0.83674302  0.44587349  0.36925009    -0.15300
C342        C  0.86212950  0.45112966  0.34508078     0.37000
N343        N  0.87831756  0.42337118  0.32903571    -0.89600
H344        H  0.88970282  0.48735649  0.31636416     0.18100
H345        H  0.80223394  0.47047888  0.40296910     0.18100
N346        N  0.81320547  0.53437808  0.38987194    -0.88600
H347        H  0.90407026  0.42543367  0.33329973     0.35500
H348        H  0.87419925  0.42522510  0.30322537     0.40600
H349        H  0.81698084  0.53331354  0.41577791     0.40200
H350        H  0.78757843  0.53154551  0.38528178     0.35100
C351        C  0.82261408  0.35694647  0.50445704    -0.26700
C352        C  0.83666289  0.34015813  0.47685362    -0.14700
C353        C  0.86088000  0.31490924  0.48260353     0.35900
C354        C  0.86930372  0.30624452  0.51566909    -0.26100
C355        C  0.85382770  0.32173418  0.54324803    -0.15300
C356        C  0.83092540  0.34804701  0.53742585     0.37000
N357        N  0.81497809  0.36502049  0.56477839    -0.89600
H358        H  0.80425030  0.37653436  0.50051298     0.18100
H359        H  0.88717189  0.28626671  0.51986334     0.18100
N360        N  0.87579445  0.29700633  0.45507011    -0.88600
H361        H  0.78908750  0.36196254  0.56231200     0.35500
H362        H  0.82039610  0.39060373  0.56281611     0.40600
H363        H  0.85700887  0.28243159  0.44398928     0.40200
H364        H  0.89393254  0.28020962  0.46363935     0.35100
C365        C  0.99882356  0.65598184  0.37946225    -0.26700
C366        C  0.02639712  0.63842053  0.36639036    -0.14700
C367        C  0.02035228  0.61076301  0.34501766     0.35900
C368        C  0.98736416  0.60207777  0.33635688    -0.26100
C369        C  0.95983513  0.62033205  0.34852993    -0.15300
C370        C  0.96590898  0.64740964  0.37085893     0.37000
N371        N  0.93947600  0.66774943  0.38413313    -0.89600
H372        H  0.00279851  0.67726850  0.39591201     0.18100
H373        H  0.98337811  0.58125175  0.31932648     0.18100
N374        N  0.04755570  0.59197686  0.33105271    -0.88600
H375        H  0.92362178  0.65265736  0.39857774     0.35500
H376        H  0.92604930  0.67816367  0.36427103     0.40600
H377        H  0.04592389  0.59330138  0.30492366     0.40200
H378        H  0.04462288  0.56690459  0.33807920     0.35100
C379        C  0.99881600  0.35701951  0.67623941    -0.26700
C380        C  0.02596718  0.33965362  0.66219968    -0.14700
C381        C  0.01953843  0.31378026  0.63887747     0.35900
C382        C  0.98638435  0.30466268  0.63154451    -0.26100
C383        C  0.95914063  0.32081484  0.64697994    -0.15300
C384        C  0.96574039  0.34805843  0.66899365     0.37000
N385        N  0.93969610  0.36644456  0.68549352    -0.89600
H386        H  0.00325367  0.37719287  0.69393489     0.18100
H387        H  0.98206577  0.28407483  0.61431135     0.18100
N388        N  0.04647471  0.29561613  0.62361640    -0.88600
H389        H  0.92560408  0.34997214  0.70017625     0.35500
H390        H  0.92442924  0.37756913  0.66736776     0.40600
H391        H  0.04416271  0.29784881  0.59760976     0.40200
H392        H  0.04383994  0.27028518  0.62981603     0.35100
C393        C  0.16331148  0.60045988  0.51109417    -0.26700
C394        C  0.15071904  0.61828730  0.53870832    -0.14700
C395        C  0.12689162  0.64383219  0.53316404     0.35900
C396        C  0.11783439  0.65241506  0.50034044    -0.26100
C397        C  0.13187532  0.63591545  0.47257845    -0.15300
C398        C  0.15392582  0.60878280  0.47822957     0.37000
N399        N  0.16779848  0.59023755  0.45077034    -0.89600
H400        H  0.18115297  0.58037229  0.51492718     0.18100
H401        H  0.10047171  0.67294061  0.49664126     0.18100
N402        N  0.11289155  0.66228001  0.56063600    -0.88600
H403        H  0.16125880  0.56502078  0.45380286     0.35500
H404        H  0.19388467  0.59208670  0.45200506     0.40600
H405        H  0.08681931  0.65971990  0.55969515     0.40200
H406        H  0.11872103  0.68760803  0.55737856     0.35100
C407        C  0.16928606  0.48383175  0.62869398    -0.26700
C408        C  0.15303027  0.51143642  0.64337685    -0.14700
C409        C  0.12675429  0.50549627  0.66632493     0.35900
C410        C  0.11765001  0.47254644  0.67438849    -0.26100
C411        C  0.13445391  0.44490978  0.66049710    -0.15300
C412        C  0.16050290  0.45085305  0.63702468     0.37000
N413        N  0.17960928  0.42421758  0.62234813    -0.89600
H414        H  0.18969536  0.48783021  0.61122883     0.18100
H415        H  0.09782673  0.46867186  0.69254791     0.18100
N416        N  0.11008719  0.53274549  0.68275631    -0.88600
H417        H  0.16349321  0.40879705  0.60853223     0.35500
H418        H  0.19075639  0.41030779  0.64147502     0.40600
H419        H  0.11337714  0.53002486  0.70862307     0.40200
H420        H  0.08449865  0.53092581  0.67759088     0.35100
C421        C  0.87611464  0.24449365  0.78734593    -0.26700
C422        C  0.87166080  0.20970108  0.79065464    -0.14700
C423        C  0.86959335  0.18979395  0.76140080     0.35900
C424        C  0.87084002  0.20511141  0.72972546    -0.26100
C425        C  0.87386816  0.24007106  0.72662285    -0.15300
C426        C  0.87719359  0.25975095  0.75578415     0.37000
N427        N  0.88202870  0.29527858  0.75351726    -0.89600
H428        H  0.87822078  0.26022677  0.80941724     0.18100
H429        H  0.86852357  0.18962216  0.70749653     0.18100
N430        N  0.86635309  0.15408806  0.76360602    -0.88600
H431        H  0.90461523  0.30126818  0.76536016     0.35500
H432        H  0.86265276  0.30702635  0.76666878     0.40600
H433        H  0.88658853  0.14325416  0.75094995     0.40200
H434        H  0.84439396  0.14705168  0.75119000     0.35100
C435        C  0.82895696  0.09856764  0.01954505    -0.26700
C436        C  0.83803289  0.12022810  0.04574653    -0.14700
C437        C  0.85558383  0.15007338  0.03814117     0.35900
C438        C  0.86270656  0.15793215  0.00477727    -0.26100
C439        C  0.85252516  0.13695872  0.97825252    -0.15300
C440        C  0.83595025  0.10643426  0.98610288     0.37000
N441        N  0.82505769  0.08321008  0.96094284    -0.89600
H442        H  0.81551434  0.07558481  0.02503865     0.18100
H443        H  0.87546464  0.18136494  0.99963127     0.18100
N444        N  0.86489187  0.17386931  0.06344031    -0.88600
H445        H  0.84579373  0.07546757  0.94700419     0.35500
H446        H  0.80776119  0.09511897  0.94528867     0.40600
H447        H  0.88154202  0.16243731  0.08003008     0.40200
H448        H  0.84337465  0.18123322  0.07648190     0.35100
C449        C  0.10181081  0.22702326  0.79322673    -0.26700
C450        C  0.11135822  0.19879077  0.77459501    -0.14700
C451        C  0.12065957  0.20265568  0.74077736     0.35900
C452        C  0.12014780  0.23449283  0.72608449    -0.26100
C453        C  0.11055870  0.26296881  0.74450969    -0.15300
C454        C  0.10106119  0.25899348  0.77847235     0.37000
N455        N  0.09095113  0.28722542  0.79825745    -0.89600
H456        H  0.09460651  0.22423293  0.81927244     0.18100
H457        H  0.12776946  0.23685456  0.70012487     0.18100
N458        N  0.13184325  0.17442254  0.72154485    -0.88600
H459        H  0.10694447  0.28893816  0.81892107     0.35500
H460        H  0.06671719  0.28268010  0.80713004     0.40600
H461        H  0.15622742  0.17932487  0.71327981     0.40200
H462        H  0.11644294  0.17220713  0.70048902     0.35100
C463        C  0.01802664  0.14503551  0.87611894    -0.26700
C464        C  0.02320800  0.11877178  0.85325791    -0.14700
C465        C  0.99542837  0.10007019  0.84196586     0.35900
C466        C  0.96299595  0.10914597  0.85210321    -0.26100
C467        C  0.95759861  0.13689808  0.87320371    -0.15300
C468        C  0.98565145  0.15435614  0.88602508     0.37000
N469        N  0.98152275  0.18200380  0.90862578    -0.89600
H470        H  0.03913419  0.15945865  0.88532885     0.18100
H471        H  0.94190737  0.09509757  0.84231590     0.18100
N472        N  0.99997277  0.07191667  0.82010166    -0.88600
H473        H  0.99245600  0.20319917  0.89774610     0.35500
H474        H  0.99456219  0.17658935  0.93067608     0.40600
H475        H  0.98636588  0.07630188  0.79816424     0.40200
H476        H  0.98983652  0.05077147  0.83180742     0.35100
C477        C  0.12423998  0.95328397  0.84487155    -0.26700
C478        C  0.14747335  0.94831668  0.87073506    -0.14700
C479        C  0.15878681  0.97624790  0.88928309     0.35900
C480        C  0.14856218  0.00866092  0.88014191    -0.26100
C481        C  0.12726580  0.01379900  0.85258289    -0.15300
C482        C  0.11414709  0.98556184  0.83558548     0.37000
N483        N  0.09109088  0.98939520  0.80835829    -0.89600
H484        H  0.11488426  0.93208244  0.83063771     0.18100
H485        H  0.15845594  0.02991453  0.89390936     0.18100
N486        N  0.18080028  0.97189705  0.91725976    -0.88600
H487        H  0.06917282  0.97631778  0.81429236     0.35500
H488        H  0.10161333  0.97831914  0.78704099     0.40600
H489        H  0.16918540  0.98207736  0.93845443     0.40200
H490        H  0.20265041  0.98560612  0.91266910     0.35100
C491        C  0.87446725  0.75600503  0.27174817    -0.26700
C492        C  0.87621856  0.75892091  0.23676198    -0.14700
C493        C  0.87888567  0.72963593  0.21709423     0.31100
C494        C  0.87861384  0.69805952  0.23264168    -0.26100
C495        C  0.87544404  0.69513010  0.26760664    -0.15300
C496        C  0.87396227  0.72455052  0.28727664     0.37000
N497        N  0.87216080  0.72273091  0.32309205    -0.89600
H498        H  0.87266678  0.77828634  0.28724084     0.18100
H499        H  0.88017900  0.67575457  0.21716927     0.18100
N500        N  0.88225118  0.73180905  0.18141847    -0.88600
H501        H  0.85042963  0.73507106  0.33085244     0.35500
H502        H  0.89275478  0.73562212  0.33299678     0.40600
H503        H  0.86250901  0.71845209  0.17052328     0.40200
H504        H  0.90465182  0.72007792  0.17458198     0.35100
C505        C  0.87434297  0.97098001  0.17503551    -0.26700
C506        C  0.85559944  0.94448227  0.16135400    -0.14700
C507        C  0.82987128  0.95171015  0.13829836     0.35900
C508        C  0.82204118  0.98512709  0.13104497    -0.26100
C509        C  0.83932270  0.01173133  0.14642830    -0.15300
C510        C  0.86654391  0.00443679  0.16774310     0.37000
N511        N  0.88553061  0.03075698  0.18316788    -0.89600
H512        H  0.89456559  0.96578812  0.19236830     0.18100
H513        H  0.80139130  0.99017965  0.11418781     0.18100
N514        N  0.81042779  0.92537512  0.12346181    -0.88600
H515        H  0.91062386  0.02776801  0.17629263     0.35500
H516        H  0.88382448  0.02795897  0.20916643     0.40600
H517        H  0.81241868  0.92744125  0.09741479     0.40200
H518        H  0.78533907  0.92904805  0.13001801     0.35100
C519        C  0.10922813  0.71151034  0.22783725    -0.26700
C520        C  0.11014751  0.74651635  0.22436506    -0.14700
C521        C  0.11008051  0.76670882  0.25347152     0.35900
C522        C  0.11056405  0.75161449  0.28524266    -0.26100
C523        C  0.11126206  0.71657250  0.28863713    -0.15300
C524        C  0.10982031  0.69643127  0.25954308     0.37000
N525        N  0.10867511  0.66060952  0.26198450    -0.89600
H526        H  0.10886265  0.69559394  0.20579478     0.18100
H527        H  0.11114481  0.76747337  0.30732025     0.18100
N528        N  0.10926735  0.80252912  0.25097421    -0.88600
H529        H  0.12911105  0.65085493  0.24880054     0.35500
H530        H  0.08677726  0.65226267  0.25027397     0.40600
H531        H  0.13031628  0.81211117  0.26329788     0.40200
H532        H  0.08795564  0.81110206  0.26356872     0.35100
C533        C  0.11621285  0.80553257  0.01110805    -0.26700
C534        C  0.13131742  0.82204065  0.03839159    -0.14700
C535        C  0.15335252  0.84920738  0.03187451     0.35900
C536        C  0.16080897  0.85792343  0.99885983    -0.26100
C537        C  0.14707879  0.84030753  0.97169609    -0.15300
C538        C  0.12387245  0.81438419  0.97794170     0.37000
N539        N  0.10918102  0.79591719  0.95084966    -0.89600
H540        H  0.09902928  0.78493178  0.01543423     0.18100
H541        H  0.17846429  0.87812133  0.99447837     0.18100
N542        N  0.16978264  0.86767603  0.05795017    -0.88600
H543        H  0.08314601  0.79796494  0.95280874     0.35500
H544        H  0.11553397  0.77065531  0.95368477     0.40600
H545        H  0.18416775  0.85117575  0.07229610     0.40200
H546        H  0.15169020  0.87918867  0.07298263     0.35100
C547        C  0.96546027  0.81845543  0.13296675    -0.26700
C548        C  0.96033498  0.84222570  0.15843472    -0.14700
C549        C  0.98827467  0.85871594  0.17269985     0.35900
C550        C  0.02065981  0.84876846  0.16343322    -0.26100
C551        C  0.02576036  0.82289235  0.14010311    -0.15300
C552        C  0.99785252  0.80865837  0.12370775     0.37000
N553        N  0.00217324  0.78386140  0.09805055    -0.89600
H554        H  0.94426744  0.80613666  0.12125811     0.18100
H555        H  0.04197844  0.86037410  0.17561113     0.18100
N556        N  0.98375909  0.88491655  0.19709920    -0.88600
H557        H  0.99086085  0.79271247  0.07616048     0.35500
H558        H  0.98956375  0.76210068  0.10545163     0.40600
H559        H  0.97182217  0.90490735  0.18506707     0.40200
H560        H  0.00684359  0.89400023  0.20544142     0.35100
C561        C  0.25055613  0.76244382  0.39751990    -0.26700
C562        C  0.27801662  0.74285388  0.38774898    -0.14700
C563        C  0.27283207  0.70898655  0.37876086     0.35900
C564        C  0.24020297  0.69564281  0.37925759    -0.26100
C565        C  0.21246828  0.71534414  0.38849847    -0.15300
C566        C  0.21803061  0.74899220  0.39836017     0.37000
N567        N  0.19082599  0.76982326  0.40900835    -0.89600
H568        H  0.25437866  0.78837433  0.40477923     0.18100
H569        H  0.23643010  0.66977926  0.37181257     0.18100
N570        N  0.30054714  0.68850474  0.36822919    -0.88600
H571        H  0.18994940  0.79077797  0.39331567     0.35500
H572        H  0.19591587  0.77815951  0.43334219     0.40600
H573        H  0.30981813  0.69855949  0.34584927     0.40200
H574        H  0.29254659  0.66416466  0.36270323     0.35100
C575        C  0.77487923  0.85072099  0.27454923    -0.26700
C576        C  0.77686122  0.85629031  0.23990615    -0.14700
C577        C  0.74727802  0.86211261  0.22154845     0.35900
C578        C  0.71623751  0.86139185  0.23821423    -0.26100
C579        C  0.71414044  0.85505092  0.27286187    -0.15300
C580        C  0.74395893  0.84987769  0.29110959     0.37000
N581        N  0.74314901  0.84385063  0.32648406    -0.89600
H582        H  0.79750204  0.84629674  0.28887371     0.18100
H583        H  0.69356067  0.86557794  0.22394283     0.18100
N584        N  0.74886645  0.86912895  0.18624103    -0.88600
H585        H  0.75736593  0.86246280  0.33829812     0.35500
H586        H  0.75456635  0.82072344  0.33105201     0.40600
H587        H  0.76160587  0.89185110  0.18328005     0.40200
H588        H  0.72483774  0.87270397  0.17646366     0.35100
C589        C  0.49010956  0.80675295  0.38817232    -0.26700
C590        C  0.46316331  0.82196808  0.37142869    -0.14700
C591        C  0.47001271  0.84702341  0.34743246     0.35900
C592        C  0.50328584  0.85506379  0.33949082    -0.26100
C593        C  0.53028043  0.83850275  0.35479567    -0.15300
C594        C  0.52354338  0.81450387  0.38003173     0.37000
N595        N  0.55041155  0.79693229  0.39630836    -0.89600
H596        H  0.48510659  0.78767747  0.40682757     0.18100
H597        H  0.50794138  0.87369257  0.32029046     0.18100
N598        N  0.44339093  0.86335522  0.32982476    -0.88600
H599        H  0.56167965  0.78139836  0.37836945     0.35500
H600        H  0.54115679  0.78107416  0.41493785     0.40600
H601        H  0.44652087  0.85880665  0.30419425     0.40200
H602        H  0.44559341  0.88917991  0.33386131     0.35100
C603        C  0.27911458  0.86015905  0.75402004    -0.26700
C604        C  0.25908481  0.86288766  0.72524752    -0.14700
C605        C  0.22408680  0.86639728  0.72895030     0.35900
C606        C  0.20984685  0.86679317  0.76100876    -0.26100
C607        C  0.22975491  0.86373403  0.78973738    -0.15300
C608        C  0.26485562  0.86037592  0.78624854     0.37000
N609        N  0.28580203  0.85613466  0.81524791    -0.89600
H610        H  0.30596944  0.85733858  0.75136500     0.18100
H611        H  0.18291379  0.86920279  0.76338004     0.18100
N612        N  0.20265452  0.86851361  0.70025088    -0.88600
H613        H  0.31098794  0.85448373  0.80829373     0.35500
H614        H  0.27957705  0.83311882  0.82616966     0.40600
H615        H  0.18915317  0.89091057  0.70184199     0.40200
H616        H  0.18562118  0.84860393  0.70122650     0.35100
C617        C  0.27753052  0.73528265  0.61807570    -0.26700
C618        C  0.25808155  0.76271802  0.62815526    -0.14700
C619        C  0.22452352  0.75753651  0.63762298     0.35900
C620        C  0.21086936  0.72510966  0.63652599    -0.26100
C621        C  0.23019506  0.69745038  0.62620457    -0.15300
C622        C  0.26395468  0.70284700  0.61683671     0.37000
N623        N  0.28481039  0.67555470  0.60640917    -0.89600
H624        H  0.30345632  0.73904822  0.61091843     0.18100
H625        H  0.18507819  0.72161599  0.64422622     0.18100
N626        N  0.20461798  0.78491888  0.64961299    -0.88600
H627        H  0.30543500  0.67448744  0.62249722     0.35500
H628        H  0.29360342  0.68072468  0.58226534     0.40600
H629        H  0.19678356  0.77930016  0.67398569     0.40200
H630        H  0.18333798  0.78670205  0.63447984     0.35100
C631        C  0.36197691  0.81462463  0.53662425    -0.26700
C632        C  0.33797382  0.83991991  0.54110986    -0.14700
C633        C  0.32525016  0.85668626  0.51276065     0.35900
C634        C  0.33526925  0.84669435  0.48059629    -0.26100
C635        C  0.35774099  0.82000029  0.47595726    -0.15300
C636        C  0.37207092  0.80449217  0.50440940     0.37000
N637        N  0.39638282  0.77818960  0.50061630    -0.89600
H638        H  0.37209019  0.80184868  0.55831372     0.18100
H639        H  0.32437193  0.85920208  0.45912662     0.18100
N640        N  0.30195749  0.88374824  0.51642563    -0.88600
H641        H  0.40384900  0.76904817  0.52397995     0.35500
H642        H  0.41768612  0.78873599  0.48956933     0.40600
H643        H  0.28009457  0.87745926  0.50343215     0.40200
H644        H  0.31230402  0.90502395  0.50514609     0.35100
C645        C  0.21276672  0.08996308  0.74290869    -0.26700
C646        C  0.20915917  0.09973045  0.77662490    -0.14700
C647        C  0.23823991  0.10778450  0.79522669     0.35900
C648        C  0.26982731  0.10630503  0.77984409    -0.26100
C649        C  0.27316267  0.09753856  0.74595759    -0.15300
C650        C  0.24435475  0.08896445  0.72748027     0.37000
N651        N  0.24708734  0.07877788  0.69314355    -0.89600
H652        H  0.19092954  0.08345901  0.72815206     0.18100
H653        H  0.29180221  0.11308898  0.79429251     0.18100
N654        N  0.23599448  0.11781299  0.82964522    -0.88600
H655        H  0.23250389  0.09498928  0.67867362     0.35500
H656        H  0.23702597  0.05465292  0.69092966     0.40600
H657        H  0.24651856  0.14173622  0.83193118     0.40200
H658        H  0.25035232  0.10123372  0.84392213     0.35100
C659        C  0.35930288  0.95083777  0.67471441    -0.26700
C660        C  0.34001239  0.94585308  0.64577344    -0.14700
C661        C  0.33120298  0.97371127  0.62591264     0.35900
C662        C  0.33950244  0.00618341  0.63695998    -0.26100
C663        C  0.35653300  0.01137369  0.66739632    -0.15300
C664        C  0.36752225  0.98317175  0.68575231     0.37000
N665        N  0.38628892  0.98706666  0.71610630    -0.89600
H666        H  0.36659746  0.92959394  0.68995960     0.18100
H667        H  0.33161968  0.02753849  0.62220757     0.18100
N668        N  0.31346494  0.96896469  0.59491653    -0.88600
H669        H  0.40902771  0.97440136  0.71327447     0.35500
H670        H  0.37294401  0.97557682  0.73551694     0.40600
H671        H  0.32917510  0.95558445  0.57875486     0.40200
H672        H  0.30877648  0.99202294  0.58339139     0.35100
C673        C  0.76061096  0.20085934  0.39324150    -0.26700
C674        C  0.72562455  0.19771801  0.39435939    -0.14700
C675        C  0.70590330  0.22698154  0.39621131     0.35900
C676        C  0.72141035  0.25867262  0.39602375    -0.26100
C677        C  0.75642100  0.26181145  0.39361545    -0.15300
C678        C  0.77610091  0.23241896  0.39268572     0.37000
N679        N  0.81189899  0.23435372  0.39127976    -0.89600
H680        H  0.77616410  0.17863771  0.39190634     0.18100
H681        H  0.70586260  0.28090503  0.39701079     0.18100
N682        N  0.67018821  0.22468744  0.39862474    -0.88600
H683        H  0.81991092  0.22178537  0.36967404     0.35500
H684        H  0.82156233  0.22174769  0.41206296     0.40600
H685        H  0.65983466  0.23772874  0.37842174     0.40200
H686        H  0.66273251  0.23670214  0.42070892     0.35100
C687        C  0.71145208  0.09530278  0.26662784    -0.26700
C688        C  0.73159915  0.09940002  0.29510724    -0.14700
C689        C  0.76664357  0.10253404  0.29120730     0.35900
C690        C  0.78065573  0.10132961  0.25887249    -0.26100
C691        C  0.76044000  0.09739725  0.23029852    -0.15300
C692        C  0.72543256  0.09423472  0.23443762     0.37000
N693        N  0.70373619  0.09073357  0.20606157    -0.89600
H694        H  0.68453982  0.09291168  0.26930346     0.18100
H695        H  0.80750413  0.10400035  0.25598401     0.18100
N696        N  0.78779845  0.10782832  0.31989689    -0.88600
H697        H  0.68674581  0.11065865  0.20630982     0.35500
H698        H  0.69020082  0.06843444  0.20878149     0.40600
H699        H  0.78165455  0.13117112  0.33013658     0.40200
H700        H  0.81295342  0.10928317  0.31269072     0.35100
C701        C  0.67205115  0.98312790  0.38290792    -0.26700
C702        C  0.65372369  0.01021956  0.36984741    -0.14700
C703        C  0.62666312  0.00334358  0.34804046     0.35900
C704        C  0.61907993  0.97005786  0.33925832    -0.26100
C705        C  0.63787725  0.94311423  0.35177318    -0.15300
C706        C  0.66450820  0.94987678  0.37404097     0.37000
N707        N  0.68497061  0.92324597  0.38664173    -0.89600
H708        H  0.69302439  0.98770352  0.39952304     0.18100
H709        H  0.59859355  0.96536033  0.32206940     0.18100
N710        N  0.60730214  0.02999854  0.33388708    -0.88600
H711        H  0.68408487  0.92399669  0.41281334     0.35500
H712        H  0.70969939  0.92773222  0.37921129     0.40600
H713        H  0.58225423  0.02629946  0.34059699     0.40200
H714        H  0.60904975  0.02837940  0.30778388     0.35100
C715        C  0.73599526  0.19443773  0.62988015    -0.26700
C716        C  0.70815857  0.21587029  0.62740613    -0.14700
C717        C  0.71378220  0.25095912  0.62519014     0.35900
C718        C  0.74650605  0.26345925  0.62580808    -0.26100
C719        C  0.77416681  0.24198304  0.62836235    -0.15300
C720        C  0.76877250  0.20712795  0.63038095     0.37000
N721        N  0.79638476  0.18456404  0.63422040    -0.89600
H722        H  0.73238695  0.16757168  0.63182060     0.18100
H723        H  0.75030690  0.29034024  0.62435476     0.18100
N724        N  0.68700077  0.27474602  0.62327442    -0.88600
H725        H  0.79571551  0.16736587  0.61443513     0.35500
H726        H  0.79303883  0.17132113  0.65658652     0.40600
H727        H  0.67138398  0.27165671  0.64408007     0.40200
H728        H  0.67345080  0.27045595  0.60127574     0.35100
C729        C  0.49493137  0.15786295  0.63612210    -0.26700
C730        C  0.52239429  0.13898896  0.64741795    -0.14700
C731        C  0.51628408  0.10977974  0.66653719     0.35900
C732        C  0.48335484  0.10115633  0.67535175    -0.26100
C733        C  0.45613337  0.12086278  0.66519342    -0.15300
C734        C  0.46204491  0.14914239  0.64483732     0.37000
N735        N  0.43493124  0.17014819  0.63435224    -0.89600
H736        H  0.49893495  0.18025413  0.62129293     0.18100
H737        H  0.47914655  0.07923024  0.69081887     0.18100
N738        N  0.54335090  0.08921621  0.67793139    -0.88600
H739        H  0.43514797  0.17124009  0.60817201     0.35500
H740        H  0.43924319  0.19433523  0.64356206     0.40600
H741        H  0.53958336  0.06492784  0.66874365     0.40200
H742        H  0.54243398  0.08826342  0.70410077     0.35100
C743        C  0.64768149  0.11004770  0.53740039    -0.26700
C744        C  0.62576993  0.13731110  0.54148598    -0.14700
C745        C  0.61150866  0.15223689  0.51268440     0.35900
C746        C  0.62162237  0.14134573  0.48067937    -0.26100
C747        C  0.64556676  0.11584698  0.47677266    -0.15300
C748        C  0.65767560  0.09928147  0.50547444     0.37000
N749        N  0.68050814  0.07176607  0.50241298    -0.89600
H750        H  0.65833167  0.09776559  0.55912068     0.18100
H751        H  0.61182220  0.15389874  0.45871717     0.18100
N752        N  0.58743292  0.17883152  0.51589449    -0.88600
H753        H  0.66970927  0.05087604  0.51399448     0.35500
H754        H  0.70238784  0.07788818  0.51544665     0.40600
H755        H  0.56607450  0.16874051  0.52726615     0.40200
H756        H  0.57996481  0.18742636  0.49232669     0.35100
C757        C  0.38205509  0.75051901  0.22899138    -0.26700
C758        C  0.37608955  0.71595944  0.22505589    -0.14700
C759        C  0.37170431  0.69596591  0.25393819     0.35900
C760        C  0.37256856  0.71083601  0.28576489    -0.26100
C761        C  0.37729381  0.74547350  0.28953230    -0.15300
C762        C  0.38253423  0.76539668  0.26089341     0.37000
N763        N  0.38881929  0.80063163  0.26410714    -0.89600
H764        H  0.38578917  0.76628188  0.20720782     0.18100
H765        H  0.36861841  0.69523541  0.30764221     0.18100
N766        N  0.36635125  0.66053724  0.25123569    -0.88600
H767        H  0.37054349  0.81343083  0.25045694     0.35500
H768        H  0.41211467  0.80579365  0.25325710     0.40600
H769        H  0.34347553  0.65482968  0.26267774     0.40200
H770        H  0.38531796  0.64838156  0.26454059     0.35100
C771        C  0.23874301  0.76652032  0.12003459    -0.26700
C772        C  0.21107496  0.74568988  0.12621059    -0.14700
C773        C  0.21623875  0.71116532  0.13142495     0.35900
C774        C  0.24877920  0.69817710  0.13084857    -0.26100
C775        C  0.27666455  0.71893786  0.12506613    -0.15300
C776        C  0.27138993  0.75346416  0.11914169     0.37000
N777        N  0.29897368  0.77552161  0.11270557    -0.89600
H778        H  0.23502922  0.79309207  0.11575367     0.18100
H779        H  0.25213692  0.67160914  0.13538389     0.18100
N780        N  0.18862310  0.68930727  0.13847926    -0.88600
H781        H  0.29886163  0.79435411  0.13096521     0.35500
H782        H  0.29510477  0.78681670  0.08938970     0.40600
H783        H  0.19272822  0.67819805  0.16186334     0.40200
H784        H  0.18837377  0.67033057  0.12039724     0.35100
C785        C  0.72548301  0.19852356  0.13007720    -0.26700
C786        C  0.76041113  0.19655833  0.13360577    -0.14700
C787        C  0.77926281  0.22639956  0.13598433     0.35900
C788        C  0.76289005  0.25745001  0.13494757    -0.26100
C789        C  0.72791460  0.25930852  0.13198817    -0.15300
C790        C  0.70903581  0.22952169  0.12922147     0.37000
N791        N  0.67331864  0.23081898  0.12504503    -0.89600
H792        H  0.71079999  0.17573272  0.12819101     0.18100
H793        H  0.77759164  0.28021170  0.13720018     0.18100
N794        N  0.81497009  0.22541106  0.13924374    -0.88600
H795        H  0.66315665  0.20666021  0.12408368     0.35500
H796        H  0.66873493  0.24168416  0.10168499     0.40600
H797        H  0.82149042  0.23789288  0.16136324     0.40200
H798        H  0.82540800  0.23858299  0.11913412     0.35100
C799        C  0.77647535  0.35722181  0.26449281    -0.26700
C800        C  0.75608771  0.36050666  0.29303943    -0.14700
C801        C  0.72116894  0.36417094  0.28880411     0.35900
C802        C  0.70736934  0.36366421  0.25650302    -0.26100
C803        C  0.72770918  0.35988146  0.22807356    -0.15300
C804        C  0.76264752  0.35696059  0.23217449     0.37000
N805        N  0.78409379  0.35241574  0.20373505    -0.89600
H806        H  0.80333032  0.35444363  0.26719929     0.18100
H807        H  0.68047406  0.36598470  0.25369774     0.18100
N808        N  0.69940537  0.36745038  0.31717142    -0.88600
H809        H  0.79686791  0.32973120  0.20665420     0.35500
H810        H  0.80176997  0.37177888  0.20371867     0.40600
H811        H  0.68214180  0.34772552  0.31654344     0.40200
H812        H  0.68618691  0.38993649  0.31475866     0.35100
C813        C  0.73840169  0.59895413  0.22138753    -0.26700
C814        C  0.71089388  0.59055324  0.24183308    -0.14700
C815        C  0.71687990  0.58171667  0.27559731     0.35900
C816        C  0.74956897  0.58323261  0.28853113    -0.26100
C817        C  0.77669789  0.59269905  0.26827029    -0.15300
C818        C  0.77106428  0.60003307  0.23425488     0.37000
N819        N  0.79820878  0.61010692  0.21302727    -0.89600
H820        H  0.73458355  0.60557602  0.19534258     0.18100
H821        H  0.75373495  0.57710686  0.31465867     0.18100
N822        N  0.68994029  0.57171369  0.29708924    -0.88600
H823        H  0.79291106  0.63403205  0.20375377     0.35500
H824        H  0.79923081  0.59354722  0.19270977     0.40600
H825        H  0.68927313  0.58813176  0.31756027     0.40200
H826        H  0.69519348  0.54769842  0.30609767     0.35100
C827        C  0.61666109  0.75433635  0.24111373    -0.26700
C828        C  0.61460497  0.75722851  0.27610995    -0.14700
C829        C  0.61172454  0.72793498  0.29561944     0.35900
C830        C  0.61149712  0.69642264  0.27990272    -0.26100
C831        C  0.61434728  0.69344852  0.24489012    -0.15300
C832        C  0.61654042  0.72287595  0.22525583     0.37000
N833        N  0.61851582  0.72086414  0.18931491    -0.89600
H834        H  0.61888148  0.77678070  0.22599749     0.18100
H835        H  0.60958073  0.67415209  0.29531791     0.18100
N836        N  0.60859238  0.73002235  0.33133267    -0.88600
H837        H  0.62083971  0.74476256  0.17879436     0.35500
H838        H  0.59579247  0.71108684  0.18070034     0.40600
H839        H  0.62825324  0.71645691  0.34202676     0.40200
H840        H  0.58610597  0.71847482  0.33823908     0.35100
C841        C  0.49754262  0.60309318  0.18000680    -0.26700
C842        C  0.52572903  0.61895336  0.16617453    -0.14700
C843        C  0.52090334  0.64386106  0.14145991     0.35900
C844        C  0.48836039  0.65307412  0.13197204    -0.26100
C845        C  0.46014391  0.63797292  0.14655409    -0.15300
C846        C  0.46497100  0.61223713  0.17042493     0.37000
N847        N  0.43695990  0.59609924  0.18604220    -0.89600
H848        H  0.50070454  0.58385983  0.19889593     0.18100
H849        H  0.48523869  0.67282777  0.11361955     0.18100
N850        N  0.54887332  0.66093645  0.12679014    -0.88600
H851        H  0.43868080  0.59991486  0.21192110     0.35500
H852        H  0.43873798  0.57034509  0.18143199     0.40600
H853        H  0.54639989  0.68656503  0.13176034     0.40200
H854        H  0.54782146  0.65749973  0.10082238     0.35100
C855        C  0.65829151  0.46871578  0.13087879    -0.26700
C856        C  0.64444833  0.44169756  0.14865123    -0.14700
C857        C  0.62000439  0.44816814  0.17339966     0.35900
C858        C  0.61140800  0.48136742  0.18116014    -0.26100
C859        C  0.62679925  0.50848582  0.16478631    -0.15300
C860        C  0.64975569  0.50189086  0.13865652     0.37000
N861        N  0.66574961  0.52870124  0.12091927    -0.89600
H862        H  0.67680916  0.46421027  0.11152093     0.18100
H863        H  0.59349770  0.48588600  0.20107608     0.18100
N864        N  0.60498316  0.42132149  0.19192002    -0.88600
H865        H  0.66052077  0.52582684  0.09539922     0.35500
H866        H  0.69162593  0.52643559  0.12419242     0.40600
H867        H  0.57903862  0.42269482  0.18871077     0.40200
H868        H  0.61021655  0.42499420  0.21734136     0.35100
C869        C  0.27043818  0.36219747  0.73816793    -0.26700
C870        C  0.27298946  0.36241639  0.77326021    -0.14700
C871        C  0.24353418  0.36368296  0.79271900     0.35900
C872        C  0.21221904  0.36347650  0.77687397    -0.26100
C873        C  0.20965943  0.36181362  0.74180795    -0.15300
C874        C  0.23914386  0.36177555  0.72232347     0.37000
N875        N  0.23751273  0.36155191  0.68645227    -0.89600
H876        H  0.29285158  0.36154147  0.72284734     0.18100
H877        H  0.18980685  0.36388013  0.79220268     0.18100
N878        N  0.24524096  0.36549774  0.82853911    -0.88600
H879        H  0.25032056  0.34044997  0.67777646     0.35500
H880        H  0.24999851  0.38288769  0.67758931     0.40600
H881        H  0.23220797  0.34499377  0.83835611     0.40200
H882        H  0.23299827  0.38736606  0.83624838     0.35100
C883        C  0.37750716  0.20222404  0.77651604    -0.26700
C884        C  0.37061967  0.19881642  0.74214340    -0.14700
C885        C  0.36548967  0.22798095  0.72267604     0.35900
C886        C  0.36585287  0.25957708  0.73839239    -0.26100
C887        C  0.37130029  0.26270815  0.77302351    -0.15300
C888        C  0.37779311  0.23359150  0.79209473     0.37000
N889        N  0.38546905  0.23500468  0.82715147    -0.89600
H890        H  0.38207959  0.18022558  0.79174625     0.18100
H891        H  0.36126152  0.28186992  0.72359782     0.18100
N892        N  0.36001283  0.22555911  0.68713678    -0.88600
H893        H  0.36462502  0.24399010  0.84016274     0.35500
H894        H  0.40561752  0.25140852  0.83070860     0.40600
H895        H  0.38204205  0.21636563  0.67635037     0.40200
H896        H  0.35604035  0.24929234  0.67677206     0.35100
C897        C  0.22198611  0.70250072  0.88277907    -0.26700
C898        C  0.25694158  0.69940453  0.88435970    -0.14700
C899        C  0.27689655  0.72864607  0.88637154     0.35900
C900        C  0.26137948  0.76025793  0.88639475    -0.26100
C901        C  0.22641191  0.76332730  0.88435283    -0.15300
C902        C  0.20660906  0.73404944  0.88255108     0.37000
N903        N  0.17083726  0.73610818  0.88079855    -0.89600
H904        H  0.20641124  0.68027869  0.88114228     0.18100
H905        H  0.27674910  0.78263645  0.88765264     0.18100
N906        N  0.31274991  0.72622112  0.88866361    -0.88600
H907        H  0.16085215  0.72311976  0.90124050     0.35500
H908        H  0.16303144  0.72398807  0.85888419     0.40600
H909        H  0.31841696  0.71470747  0.91149751     0.40200
H910        H  0.32365256  0.75005835  0.88942898     0.35100
C911        C  0.22421963  0.59682994  0.78372460    -0.26700
C912        C  0.25915535  0.59671276  0.78737615    -0.14700
C913        C  0.27948064  0.59445339  0.75854812     0.35900
C914        C  0.26463604  0.59397581  0.72668326    -0.26100
C915        C  0.22970580  0.59573121  0.72296671    -0.15300
C916        C  0.20923516  0.59618969  0.75193302     0.37000
N917        N  0.17332793  0.59609155  0.74907130    -0.89600
H918        H  0.20843957  0.59810861  0.80579326     0.18100
H919        H  0.28063623  0.59306641  0.70475264     0.18100
N920        N  0.31517043  0.59240618  0.76145703    -0.88600
H921        H  0.16206710  0.59709788  0.77275805     0.35500
H922        H  0.16631259  0.57318767  0.73843933     0.40600
H923        H  0.32563852  0.61245367  0.74822400     0.40200
H924        H  0.32299944  0.57013782  0.75002208     0.35100
C925        C  0.35620767  0.64805344  0.97764210    -0.26700
C926        C  0.33271562  0.62210250  0.97354953    -0.14700
C927        C  0.32105511  0.60496791  0.00238655     0.35900
C928        C  0.33228504  0.61474024  0.03415866    -0.26100
C929        C  0.35448298  0.64181979  0.03833517    -0.15300
C930        C  0.36695424  0.65818306  0.00955332     0.37000
N931        N  0.39023271  0.68539069  0.01244292    -0.89600
H932        H  0.36557015  0.66147067  0.95596314     0.18100
H933        H  0.32246903  0.60170587  0.05586338     0.18100
N934        N  0.29790894  0.57755661  0.00044945    -0.88600
H935        H  0.37961614  0.70649906  0.00114023     0.35500
H936        H  0.41184558  0.67906067  0.99906888     0.40600
H937        H  0.30765190  0.55937513  0.98424491     0.40200
H938        H  0.27511324  0.58627904  0.99110186     0.35100
C939        C  0.31962228  0.48684313  0.88601493    -0.26700
C940        C  0.33463275  0.51400878  0.86934667    -0.14700
C941        C  0.35942976  0.50733146  0.84474216     0.35900
C942        C  0.36766601  0.47424016  0.83683923    -0.26100
C943        C  0.35169877  0.44710734  0.85248563    -0.15300
C944        C  0.32784412  0.45359915  0.87783061     0.37000
N945        N  0.31080171  0.42666978  0.89437875    -0.89600
H946        H  0.30061791  0.49133849  0.90489687     0.18100
H947        H  0.38607379  0.46979129  0.81736157     0.18100
N948        N  0.37562690  0.53333604  0.82601026    -0.88600
H949        H  0.28510352  0.42941576  0.89019544     0.35500
H950        H  0.31510441  0.42893236  0.92013239     0.40600
H951        H  0.38893353  0.54873457  0.84252550     0.40200
H952        H  0.35746134  0.54736518  0.81343976     0.35100
C953        C  0.70959829  0.20606841  0.89237642    -0.26700
C954        C  0.70644741  0.24118728  0.89231576    -0.14700
C955        C  0.73571795  0.26102286  0.89200582     0.35900
C956        C  0.76722742  0.24560813  0.89107696    -0.26100
C957        C  0.77042458  0.21053502  0.89020245    -0.15300
C958        C  0.74119685  0.19063110  0.89116765     0.37000
N959        N  0.74337722  0.15478403  0.89127255    -0.89600
H960        H  0.68740786  0.19039953  0.89266849     0.18100
H961        H  0.78935288  0.26136315  0.89053088     0.18100
N962        N  0.73370256  0.29687835  0.89290425    -0.88600
H963        H  0.73006770  0.14568630  0.87061145     0.35500
H964        H  0.73163465  0.14597328  0.91298717     0.40600
H965        H  0.74580853  0.30625829  0.87164449     0.40200
H966        H  0.74670218  0.30533331  0.91404071     0.35100
C967        C  0.61002364  0.26387508  0.76511873    -0.26700
C968        C  0.60961617  0.24239465  0.79298120    -0.14700
C969        C  0.60971875  0.20739991  0.78765651     0.35900
C970        C  0.61002498  0.19464146  0.75488351    -0.26100
C971        C  0.61024587  0.21610080  0.72701199    -0.15300
C972        C  0.61030933  0.25110459  0.73232397     0.37000
N973        N  0.61163677  0.27384592  0.70459834    -0.89600
H974        H  0.61023620  0.29081637  0.76873732     0.18100
H975        H  0.61021725  0.16769582  0.75129862     0.18100
N976        N  0.61053686  0.18463535  0.81538114    -0.88600
H977        H  0.63313948  0.28863233  0.70713475     0.35500
H978        H  0.59078933  0.28961500  0.70601013     0.40600
H979        H  0.63206273  0.16987460  0.81317666     0.40200
H980        H  0.58969563  0.16884722  0.81362855     0.35100
C981        C  0.61238538  0.29997346  0.00691099    -0.26700
C982        C  0.62527379  0.31816990  0.97966385    -0.14700
C983        C  0.64573534  0.34637102  0.98619363     0.35900
C984        C  0.65484648  0.35415138  0.01925611    -0.26100
C985        C  0.64356120  0.33476708  0.04635678    -0.15300
C986        C  0.62098293  0.30803389  0.03996305     0.37000
N987        N  0.60731534  0.28769686  0.06617979    -0.89600
H988        H  0.59616215  0.27860374  0.00254892     0.18100
H989        H  0.67153525  0.37516361  0.02362564     0.18100
N990        N  0.65829271  0.36667317  0.95939149    -0.88600
H991        H  0.59331331  0.30289619  0.08217339     0.35500
H992        H  0.62703690  0.27682328  0.07957223     0.40600
H993        H  0.68445056  0.36637496  0.96040324     0.40200
H994        H  0.65031696  0.39132331  0.96342066     0.35100
C995        C  0.51768412  0.34353852  0.84754509    -0.26700
C996        C  0.52144036  0.31918673  0.87268506    -0.14700
C997        C  0.49238505  0.30709072  0.88918092     0.35900
C998        C  0.46072789  0.31823566  0.87909532    -0.26100
C999        C  0.45695362  0.34088139  0.85242021    -0.15300
C1000       C  0.48592233  0.35431616  0.83720636     0.37000
N1001       N  0.48335595  0.37863522  0.81094721    -0.89600
H1002       H  0.53951401  0.35348410  0.83481116     0.18100
H1003       H  0.43883572  0.30790773  0.89140722     0.18100
N1004       N  0.49398550  0.28354238  0.91620464    -0.88600
H1005       H  0.49525650  0.36898919  0.78966325     0.35500
H1006       H  0.49628172  0.40018678  0.81845363     0.40600
H1007       H  0.50993645  0.29307520  0.93469134     0.40200
H1008       H  0.50344197  0.26083360  0.90722560     0.35100
loop_ 
_geom_bond_atom_site_label_1 
_geom_bond_atom_site_label_2 
_geom_bond_distance 
_geom_bond_site_symmetry_2 
_ccdc_geom_bond_type 
O1            V9   1.899       .  S
O1           C11   1.265       .  A
O2            V9   1.898       .  S
O2           C12   1.265       .  A
O3            V9   1.898       .  S
O3           C13   1.264       .  A
O4            V9   1.898       .  S
O4           C14   1.264       .  A
O5           V10   1.901       .  S
O5           C14   1.266       .  A
O6           V10   1.899       .  S
O6           C13   1.265       .  A
O7           V10   1.900       .  S
O7           C12   1.265       .  A
O8           V10   1.899       .  S
O8           C11   1.264       .  A
V9           V10   2.085       .  T
C11         C996   1.486       .  S
C12         C954   1.484       .  S
C13         C968   1.482       .  S
C14         C982   1.487       .  S
O15          V23   1.898       .  S
O15          C25   1.265       .  A
O16          V23   1.899       .  S
O16          C26   1.264       .  A
O17          V23   1.895       .  S
O17          C27   1.263       .  A
O18          V23   1.892       .  S
O18          C28   1.262       .  A
O19          V24   1.900       .  S
O19          C28   1.265       .  A
O20          V24   1.899       .  S
O20          C27   1.265       .  A
O21          V24   1.895       .  S
O21          C26   1.264       .  A
O22          V24   1.898       .  S
O22          C25   1.264       .  A
V23          V24   2.085       .  T
C25         C926   1.485       .  S
C26         C912   1.479       .  S
C27         C898   1.479       .  S
C28         C940   1.484       .  S
O29          V37   1.900       .  S
O29          C39   1.265       .  A
O30          V37   1.898       .  S
O30          C40   1.264       .  A
O31          V37   1.895       .  S
O31          C41   1.263       .  A
O32          V37   1.898       .  S
O32          C42   1.263       .  A
O33          V38   1.896       .  S
O33          C42   1.265       .  A
O34          V38   1.899       .  S
O34          C41   1.264       .  A
O35          V38   1.895       .  S
O35          C40   1.264       .  A
O36          V38   1.896       .  S
O36          C39   1.264       .  A
V37          V38   2.086       .  T
C39         C999   1.485       .  S
C40         C870   1.477       .  S
C41         C887   1.478       .  S
C42         C943   1.483       .  S
O43          V51   1.896       .  S
O43          C53   1.264       .  A
O44          V51   1.896       .  S
O44          C54   1.264       .  A
O45          V51   1.893       .  S
O45          C55   1.264       .  A
O46          V51   1.894       .  S
O46          C56   1.263       .  A
O47          V52   1.907       .  S
O47          C56   1.267       .  A
O48          V52   1.907       .  S
O48          C55   1.267       .  A
O49          V52   1.898       .  S
O49          C54   1.264       .  A
O50          V52   1.896       .  S
O50          C53   1.264       .  A
V51          V52   2.084       .  T
C53         C859   1.482       .  S
C54         C831   1.483       .  S
C55         C814   1.489       .  S
C56         C842   1.486       .  S
O57          V65   1.900       .  S
O57          C67   1.266       .  A
O58          V65   1.900       .  S
O58          C68   1.264       .  A
O59          V65   1.895       .  S
O59          C69   1.263       .  A
O60          V65   1.894       .  S
O60          C70   1.264       .  A
O61          V66   1.896       .  S
O61          C70   1.263       .  A
O62          V66   1.895       .  S
O62          C69   1.264       .  A
O63          V66   1.897       .  S
O63          C68   1.264       .  A
O64          V66   1.898       .  S
O64          C67   1.263       .  A
V65          V66   2.086       .  T
C67         C985   1.485       .  S
C68         C803   1.478       .  S
C69         C789   1.474       .  S
C70         C856   1.480       .  S
O71          V79   1.904       .  S
O71          C81   1.267       .  A
O72          V79   1.904       .  S
O72          C82   1.265       .  A
O73          V79   1.899       .  S
O73          C83   1.265       .  A
O74          V79   1.899       .  S
O74          C84   1.265       .  A
O75          V80   1.898       .  S
O75          C84   1.265       .  A
O76          V80   1.896       .  S
O76          C83   1.264       .  A
O77          V80   1.892       .  S
O77          C82   1.264       .  A
O78          V80   1.895       .  S
O78          C81   1.263       .  A
V79          V80   2.084       .  T
C81         C845   1.487       .  S
C82         C775   1.485       .  S
C83         C758   1.483       .  S
C84         C929   1.486       .  S
O85          V93   1.900       .  S
O85          C95   1.265       .  A
O86          V93   1.900       .  S
O86          C96   1.265       .  A
O87          V93   1.897       .  S
O87          C97   1.263       .  A
O88          V93   1.898       .  S
O88          C98   1.265       .  A
O89          V94   1.898       .  S
O89          C98   1.264       .  A
O90          V94   1.900       .  S
O90          C97   1.265       .  A
O91          V94   1.897       .  S
O91          C96   1.264       .  A
O92          V94   1.898       .  S
O92          C95   1.265       .  A
V93          V94   2.084       .  T
C95         C744   1.486       .  S
C96         C971   1.482       .  S
C97         C716   1.486       .  S
C98         C730   1.486       .  S
O99         V107   1.898       .  S
O99         C109   1.265       .  A
O100        V107   1.897       .  S
O100        C110   1.264       .  A
O101        V107   1.897       .  S
O101        C111   1.265       .  A
O102        V107   1.899       .  S
O102        C112   1.265       .  A
O103        V108   1.904       .  S
O103        C112   1.266       .  A
O104        V108   1.904       .  S
O104        C111   1.265       .  A
O105        V108   1.898       .  S
O105        C110   1.265       .  A
O106        V108   1.900       .  S
O106        C109   1.265       .  A
V107        V108   2.085       .  T
C109        C747   1.483       .  S
C110        C688   1.479       .  S
C111        C674   1.482       .  S
C112        C702   1.490       .  S
O113        V121   1.897       .  S
O113        C123   1.264       .  A
O114        V121   1.899       .  S
O114        C124   1.264       .  A
O115        V121   1.901       .  S
O115        C125   1.265       .  A
O116        V121   1.901       .  S
O116        C126   1.266       .  A
O117        V122   1.895       .  S
O117        C126   1.264       .  A
O118        V122   1.894       .  S
O118        C125   1.264       .  A
O119        V122   1.901       .  S
O119        C124   1.265       .  A
O120        V122   1.899       .  S
O120        C123   1.265       .  A
V121        V122   2.084       .  T
C123        C733   1.479       .  S
C124        C649   1.479       .  S
C125        C884   1.483       .  S
C126        C663   1.486       .  S
O127        V135   1.898       .  S
O127        C137   1.265       .  A
O128        V135   1.901       .  S
O128        C138   1.265       .  A
O129        V135   1.891       .  S
O129        C139   1.262       .  A
O130        V135   1.893       .  S
O130        C140   1.263       .  A
O131        V136   1.901       .  S
O131        C140   1.266       .  A
O132        V136   1.902       .  S
O132        C139   1.266       .  A
O133        V136   1.896       .  S
O133        C138   1.263       .  A
O134        V136   1.896       .  S
O134        C137   1.264       .  A
V135        V136   2.086       .  T
C137        C660   1.478       .  S
C138        C618   1.474       .  S
C139        C604   1.481       .  S
C140        C632   1.480       .  S
O141        V149   1.896       .  S
O141        C151   1.265       .  A
O142        V149   1.896       .  S
O142        C152   1.264       .  A
O143        V149   1.897       .  S
O143        C153   1.265       .  A
O144        V149   1.900       .  S
O144        C154   1.265       .  A
O145        V150   1.901       .  S
O145        C154   1.265       .  A
O146        V150   1.900       .  S
O146        C153   1.264       .  A
O147        V150   1.901       .  S
O147        C152   1.265       .  A
O148        V150   1.904       .  S
O148        C151   1.266       .  A
V149        V150   2.085       .  T
C151        C593   1.487       .  S
C152        C579   1.485       .  S
C153        C828   1.480       .  S
C154        C705   1.485       .  S
O155        V163   1.899       .  S
O155        C165   1.265       .  A
O156        V163   1.899       .  S
O156        C166   1.264       .  A
O157        V163   1.895       .  S
O157        C167   1.264       .  A
O158        V163   1.896       .  S
O158        C168   1.264       .  A
O159        V164   1.898       .  S
O159        C168   1.265       .  A
O160        V164   1.899       .  S
O160        C167   1.264       .  A
O161        V164   1.905       .  S
O161        C166   1.266       .  A
O162        V164   1.903       .  S
O162        C165   1.265       .  A
V163        V164   2.086       .  T
C165        C590   1.487       .  S
C166        C562   1.480       .  S
C167        C761   1.475       .  S
C168        C635   1.484       .  S
O169        V177   1.892       .  S
O169        C179   1.262       .  A
O170        V177   1.898       .  S
O170        C180   1.264       .  A
O171        V177   1.900       .  S
O171        C181   1.264       .  A
O172        V177   1.895       .  S
O172        C182   1.264       .  A
O173        V178   1.894       .  S
O173        C182   1.263       .  A
O174        V178   1.894       .  S
O174        C181   1.263       .  A
O175        V178   1.900       .  S
O175        C180   1.265       .  A
O176        V178   1.899       .  S
O176        C179   1.265       .  A
V177        V178   2.085       .  T
C179        C534   1.484       .  S
C180        C520   1.482       .  S
C181        C772   1.476       .  S
C182        C551   1.478       .  S
O183        V191   1.888       .  S
O183        C193   1.262       .  A
O184        V191   1.892       .  S
O184        C194   1.263       .  A
O185        V191   1.894       .  S
O185        C195   1.264       .  A
O186        V191   1.893       .  S
O186        C196   1.264       .  A
O187        V192   1.897       .  S
O187        C196   1.264       .  A
O188        V192   1.900       .  S
O188        C195   1.265       .  A
O189        V192   1.902       .  S
O189        C194   1.265       .  A
O190        V192   1.900       .  S
O190        C193   1.265       .  A
V191        V192   2.087       .  T
C193        C548   1.478       .  S
C194        C576   1.476       .  S
C195        C492   1.478       .  S
C196        C506   1.477       .  S
O197        V205   1.902       .  S
O197        C207   1.265       .  A
O198        V205   1.899       .  S
O198        C208   1.265       .  A
O199        V205   1.893       .  S
O199        C209   1.263       .  A
O200        V205   1.895       .  S
O200        C210   1.264       .  A
O201        V206   1.901       .  S
O201        C210   1.265       .  A
O202        V206   1.900       .  S
O202        C209   1.265       .  A
O203        V206   1.893       .  S
O203        C208   1.262       .  A
O204        V206   1.889       .  S
O204        C207   1.263       .  A
V205        V206   2.086       .  T
C207        C537   1.479       .  S
C208        C607   1.478       .  S
C209        C901   1.480       .  S
C210        C478   1.480       .  S
O211        V219   1.888       .  S
O211        C221   1.262       .  A
O212        V219   1.890       .  S
O212        C222   1.262       .  A
O213        V219   1.901       .  S
O213        C223   1.266       .  A
O214        V219   1.901       .  S
O214        C224   1.265       .  A
O215        V220   1.898       .  S
O215        C224   1.264       .  A
O216        V220   1.899       .  S
O216        C223   1.265       .  A
O217        V220   1.905       .  S
O217        C222   1.265       .  A
O218        V220   1.906       .  S
O218        C221   1.267       .  A
V219        V220   2.085       .  T
C221        C481   1.484       .  S
C222        C450   1.474       .  S
C223        C646   1.488       .  S
C224        C464   1.481       .  S
O225        V233   1.894       .  S
O225        C235   1.264       .  A
O226        V233   1.896       .  S
O226        C236   1.264       .  A
O227        V233   1.889       .  S
O227        C237   1.263       .  A
O228        V233   1.889       .  S
O228        C238   1.263       .  A
O229        V234   1.899       .  S
O229        C238   1.265       .  A
O230        V234   1.898       .  S
O230        C237   1.264       .  A
O231        V234   1.901       .  S
O231        C236   1.265       .  A
O232        V234   1.899       .  S
O232        C235   1.264       .  A
V233        V234   2.085       .  T
C235        C436   1.478       .  S
C236        C691   1.485       .  S
C237        C786   1.477       .  S
C238        C509   1.480       .  S
O239        V247   1.904       .  S
O239        C249   1.266       .  A
O240        V247   1.906       .  S
O240        C250   1.266       .  A
O241        V247   1.902       .  S
O241        C251   1.265       .  A
O242        V247   1.900       .  S
O242        C252   1.264       .  A
O243        V248   1.894       .  S
O243        C252   1.265       .  A
O244        V248   1.894       .  S
O244        C251   1.264       .  A
O245        V248   1.894       .  S
O245        C250   1.264       .  A
O246        V248   1.893       .  S
O246        C249   1.263       .  A
V247        V248   2.084       .  T
C249        C467   1.486       .  S
C250        C957   1.484       .  S
C251        C422   1.484       .  S
C252        C439   1.489       .  S
O253        V261   1.900       .  S
O253        C263   1.265       .  A
O254        V261   1.899       .  S
O254        C264   1.265       .  A
O255        V261   1.904       .  S
O255        C265   1.266       .  A
O256        V261   1.904       .  S
O256        C266   1.266       .  A
O257        V262   1.893       .  S
O257        C266   1.263       .  A
O258        V262   1.890       .  S
O258        C265   1.262       .  A
O259        V262   1.899       .  S
O259        C264   1.265       .  A
O260        V262   1.897       .  S
O260        C263   1.264       .  A
V261        V262   2.084       .  T
C263        C408   1.486       .  S
C264        C621   1.487       .  S
C265        C915   1.482       .  S
C266        C394   1.483       .  S
O267        V275   1.899       .  S
O267        C277   1.264       .  A
O268        V275   1.895       .  S
O268        C278   1.264       .  A
O269        V275   1.897       .  S
O269        C279   1.266       .  A
O270        V275   1.900       .  S
O270        C280   1.264       .  A
O271        V276   1.896       .  S
O271        C280   1.265       .  A
O272        V276   1.898       .  S
O272        C279   1.264       .  A
O273        V276   1.896       .  S
O273        C278   1.264       .  A
O274        V276   1.897       .  S
O274        C277   1.265       .  A
V275        V276   2.085       .  T
C277        C380   1.484       .  S
C278        C873   1.478       .  S
C279        C453   1.486       .  S
C280        C411   1.486       .  S
O281        V289   1.902       .  S
O281        C291   1.266       .  A
O282        V289   1.903       .  S
O282        C292   1.265       .  A
O283        V289   1.902       .  S
O283        C293   1.265       .  A
O284        V289   1.900       .  S
O284        C294   1.266       .  A
O285        V290   1.898       .  S
O285        C294   1.264       .  A
O286        V290   1.895       .  S
O286        C293   1.264       .  A
O287        V290   1.902       .  S
O287        C292   1.266       .  A
O288        V290   1.901       .  S
O288        C291   1.265       .  A
V289        V290   2.084       .  T
C291        C366   1.490       .  S
C292        C565   1.492       .  S
C293        C523   1.482       .  S
C294        C397   1.486       .  S
O295        V303   1.899       .  S
O295        C305   1.266       .  A
O296        V303   1.900       .  S
O296        C306   1.264       .  A
O297        V303   1.901       .  S
O297        C307   1.265       .  A
O298        V303   1.902       .  S
O298        C308   1.266       .  A
O299        V304   1.895       .  S
O299        C308   1.263       .  A
O300        V304   1.895       .  S
O300        C307   1.264       .  A
O301        V304   1.897       .  S
O301        C306   1.264       .  A
O302        V304   1.898       .  S
O302        C305   1.264       .  A
V303        V304   2.085       .  T
C305        C355   1.486       .  S
C306        C425   1.479       .  S
C307        C719   1.479       .  S
C308        C383   1.488       .  S
O309        V317   1.895       .  S
O309        C319   1.263       .  A
O310        V317   1.895       .  S
O310        C320   1.264       .  A
O311        V317   1.899       .  S
O311        C321   1.264       .  A
O312        V317   1.899       .  S
O312        C322   1.264       .  A
O313        V318   1.903       .  S
O313        C322   1.266       .  A
O314        V318   1.902       .  S
O314        C321   1.265       .  A
O315        V318   1.902       .  S
O315        C320   1.265       .  A
O316        V318   1.903       .  S
O316        C319   1.266       .  A
V317        V318   2.085       .  T
C319        C338   1.486       .  S
C320        C495   1.482       .  S
C321        C817   1.478       .  S
C322        C369   1.489       .  S
O323        V331   1.897       .  S
O323        C333   1.264       .  A
O324        V331   1.897       .  S
O324        C334   1.264       .  A
O325        V331   1.898       .  S
O325        C335   1.265       .  A
O326        V331   1.898       .  S
O326        C336   1.264       .  A
O327        V332   1.900       .  S
O327        C336   1.265       .  A
O328        V332   1.898       .  S
O328        C335   1.264       .  A
O329        V332   1.905       .  S
O329        C334   1.266       .  A
O330        V332   1.903       .  S
O330        C333   1.266       .  A
V331        V332   2.084       .  T
C333        C341   1.487       .  S
C334        C677   1.486       .  S
C335        C800   1.483       .  S
C336        C352   1.485       .  S
C337        C338   1.404       .  A
C337        C342   1.404       .  A
C337        H344   1.084       .  S
C338        C339   1.414       .  A
C339        C340   1.403       .  A
C339        N346   1.433       .  S
C340        C341   1.404       .  A
C340        H345   1.084       .  S
C341        C342   1.414       .  A
C342        N343   1.432       .  S
N343        H347   1.046       .  S
N343        H348   1.046       .  S
N346        H349   1.046       .  S
N346        H350   1.046       .  S
C351        C352   1.405       .  A
C351        C356   1.403       .  A
C351        H358   1.084       .  S
C352        C353   1.416       .  A
C353        C354   1.405       .  A
C353        N360   1.438       .  S
C354        C355   1.404       .  A
C354        H359   1.083       .  S
C355        C356   1.412       .  A
C356        N357   1.433       .  S
N357        H361   1.046       .  S
N357        H362   1.046       .  S
N360        H363   1.046       .  S
N360        H364   1.045       .  S
C365        C366   1.405   1_655  A
C365        C370   1.400       .  A
C365        H372   1.084   1_655  S
C366        C367   1.414       .  A
C367        C368   1.405   1_455  A
C367        N374   1.432       .  S
C368        C369   1.405       .  A
C368        H373   1.084       .  S
C369        C370   1.419       .  A
C370        N371   1.433       .  S
N371        H375   1.046       .  S
N371        H376   1.044       .  S
N374        H377   1.046       .  S
N374        H378   1.045       .  S
C379        C380   1.403   1_655  A
C379        C384   1.398       .  A
C379        H386   1.084   1_655  S
C380        C381   1.412       .  A
C381        C382   1.403   1_455  A
C381        N388   1.432       .  S
C382        C383   1.406       .  A
C382        H387   1.084       .  S
C383        C384   1.420       .  A
C384        N385   1.432       .  S
N385        H389   1.045       .  S
N385        H390   1.046       .  S
N388        H391   1.046       .  S
N388        H392   1.046       .  S
C393        C394   1.403       .  A
C393        C398   1.404       .  A
C393        H400   1.084       .  S
C394        C395   1.413       .  A
C395        C396   1.402       .  A
C395        N402   1.433       .  S
C396        C397   1.404       .  A
C396        H401   1.084       .  S
C397        C398   1.414       .  A
C398        N399   1.432       .  S
N399        H403   1.046       .  S
N399        H404   1.045       .  S
N402        H405   1.047       .  S
N402        H406   1.045       .  S
C407        C408   1.405       .  A
C407        C412   1.401       .  A
C407        H414   1.084       .  S
C408        C409   1.412       .  A
C409        C410   1.401       .  A
C409        N416   1.433       .  S
C410        C411   1.404       .  A
C410        H415   1.084       .  S
C411        C412   1.419       .  A
C412        N413   1.433       .  S
N413        H417   1.046       .  S
N413        H418   1.044       .  S
N416        H419   1.046       .  S
N416        H420   1.045       .  S
C421        C422   1.405       .  A
C421        C426   1.400       .  A
C421        H428   1.084       .  S
C422        C423   1.413       .  A
C423        C424   1.405       .  A
C423        N430   1.432       .  S
C424        C425   1.405       .  A
C424        H429   1.084       .  S
C425        C426   1.409       .  A
C426        N427   1.433       .  S
N427        H431   1.046       .  S
N427        H432   1.045       .  S
N430        H433   1.046       .  S
N430        H434   1.045       .  S
C435        C436   1.402       .  A
C435        C440   1.399   1_554  A
C435        H442   1.084       .  S
C436        C437   1.414       .  A
C437        C438   1.397       .  A
C437        N444   1.433       .  S
C438        C439   1.408   1_554  A
C438        H443   1.084   1_554  S
C439        C440   1.420       .  A
C440        N441   1.432       .  S
N441        H445   1.044       .  S
N441        H446   1.046       .  S
N444        H447   1.044       .  S
N444        H448   1.046       .  S
C449        C450   1.401       .  A
C449        C454   1.405       .  A
C449        H456   1.084       .  S
C450        C451   1.408       .  A
C451        C452   1.399       .  A
C451        N458   1.433       .  S
C452        C453   1.405       .  A
C452        H457   1.084       .  S
C453        C454   1.416       .  A
C454        N455   1.432       .  S
N455        H459   1.045       .  S
N455        H460   1.046       .  S
N458        H461   1.046       .  S
N458        H462   1.045       .  S
C463        C464   1.403       .  A
C463        C468   1.402   1_455  A
C463        H470   1.084       .  S
C464        C465   1.410   1_455  A
C465        C466   1.404       .  A
C465        N472   1.432       .  S
C466        C467   1.406       .  A
C466        H471   1.084       .  S
C467        C468   1.414       .  A
C468        N469   1.433       .  S
N469        H473   1.046       .  S
N469        H474   1.046       .  S
N472        H475   1.046       .  S
N472        H476   1.046       .  S
C477        C478   1.403       .  A
C477        C482   1.400       .  A
C477        H484   1.084       .  S
C478        C479   1.410       .  A
C479        C480   1.405   1_565  A
C479        N486   1.432       .  S
C480        C481   1.406       .  A
C480        H485   1.084       .  S
C481        C482   1.414   1_545  A
C482        N483   1.433       .  S
N483        H487   1.046       .  S
N483        H488   1.046       .  S
N486        H489   1.046       .  S
N486        H490   1.045       .  S
C491        C492   1.403       .  A
C491        C496   1.400       .  A
C491        H498   1.084       .  S
C492        C493   1.410       .  A
C493        C494   1.405       .  A
C493        N500   1.432       .  S
C494        C495   1.406       .  A
C494        H499   1.084       .  S
C495        C496   1.412       .  A
C496        N497   1.433       .  S
N497        H501   1.045       .  S
N497        H502   1.047       .  S
N500        H503   1.045       .  S
N500        H504   1.046       .  S
C505        C506   1.404       .  A
C505        C510   1.401   1_565  A
C505        H512   1.084       .  S
C506        C507   1.410       .  A
C507        C508   1.400       .  A
C507        N514   1.433       .  S
C508        C509   1.405   1_565  A
C508        H513   1.084       .  S
C509        C510   1.411       .  A
C510        N511   1.432       .  S
N511        H515   1.046       .  S
N511        H516   1.046       .  S
N514        H517   1.046       .  S
N514        H518   1.046       .  S
C519        C520   1.403       .  A
C519        C524   1.402       .  A
C519        H526   1.084       .  S
C520        C521   1.412       .  A
C521        C522   1.404       .  A
C521        N528   1.432       .  S
C522        C523   1.404       .  A
C522        H527   1.084       .  S
C523        C524   1.412       .  A
C524        N525   1.433       .  S
N525        H529   1.046       .  S
N525        H530   1.045       .  S
N528        H531   1.046       .  S
N528        H532   1.046       .  S
C533        C534   1.407       .  A
C533        C538   1.404   1_554  A
C533        H540   1.084       .  S
C534        C535   1.419       .  A
C535        C536   1.395   1_554  A
C535        N542   1.433       .  S
C536        C537   1.402       .  A
C536        H541   1.084       .  S
C537        C538   1.410       .  A
C538        N539   1.432       .  S
N539        H543   1.046       .  S
N539        H544   1.045       .  S
N542        H545   1.046       .  S
N542        H546   1.045       .  S
C547        C548   1.403       .  A
C547        C552   1.401       .  A
C547        H554   1.084       .  S
C548        C549   1.414       .  A
C549        C550   1.402   1_655  A
C549        N556   1.438       .  S
C550        C551   1.403       .  A
C550        H555   1.083       .  S
C551        C552   1.411   1_455  A
C552        N553   1.433   1_655  S
N553        H557   1.046   1_455  S
N553        H558   1.046   1_455  S
N556        H559   1.047       .  S
N556        H560   1.044   1_655  S
C561        C562   1.402       .  A
C561        C566   1.405       .  A
C561        H568   1.084       .  S
C562        C563   1.412       .  A
C563        C564   1.407       .  A
C563        N570   1.438       .  S
C564        C565   1.407       .  A
C564        H569   1.083       .  S
C565        C566   1.415       .  A
C566        N567   1.432       .  S
N567        H571   1.046       .  S
N567        H572   1.046       .  S
N570        H573   1.047       .  S
N570        H574   1.045       .  S
C575        C576   1.402       .  A
C575        C580   1.400       .  A
C575        H582   1.084       .  S
C576        C577   1.410       .  A
C577        C578   1.407       .  A
C577        N584   1.438       .  S
C578        C579   1.408       .  A
C578        H583   1.083       .  S
C579        C580   1.412       .  A
C580        N581   1.432       .  S
N581        H585   1.046       .  S
N581        H586   1.046       .  S
N584        H587   1.045       .  S
N584        H588   1.046       .  S
C589        C590   1.406       .  A
C589        C594   1.408       .  A
C589        H596   1.083       .  S
C590        C591   1.411       .  A
C591        C592   1.403       .  A
C591        N598   1.432       .  S
C592        C593   1.405       .  A
C592        H597   1.084       .  S
C593        C594   1.416       .  A
C594        N595   1.438       .  S
N595        H599   1.047       .  S
N595        H600   1.044       .  S
N598        H601   1.046       .  S
N598        H602   1.046       .  S
C603        C604   1.404       .  A
C603        C608   1.406       .  A
C603        H610   1.084       .  S
C604        C605   1.412       .  A
C605        C606   1.399       .  A
C605        N612   1.433       .  S
C606        C607   1.401       .  A
C606        H611   1.084       .  S
C607        C608   1.415       .  A
C608        N609   1.438       .  S
N609        H613   1.045       .  S
N609        H614   1.046       .  S
N612        H615   1.046       .  S
N612        H616   1.046       .  S
C617        C618   1.401       .  A
C617        C622   1.403       .  A
C617        H624   1.084       .  S
C618        C619   1.407       .  A
C619        C620   1.403       .  A
C619        N626   1.433       .  S
C620        C621   1.408       .  A
C620        H625   1.083       .  S
C621        C622   1.415       .  A
C622        N623   1.432       .  S
N623        H627   1.045       .  S
N623        H628   1.046       .  S
N626        H629   1.046       .  S
N626        H630   1.045       .  S
C631        C632   1.403       .  A
C631        C636   1.406       .  A
C631        H638   1.083       .  S
C632        C633   1.410       .  A
C633        C634   1.401       .  A
C633        N640   1.433       .  S
C634        C635   1.405       .  A
C634        H639   1.084       .  S
C635        C636   1.415       .  A
C636        N637   1.438       .  S
N637        H641   1.045       .  S
N637        H642   1.046       .  S
N640        H643   1.046       .  S
N640        H644   1.046       .  S
C645        C646   1.407       .  A
C645        C650   1.404       .  A
C645        H652   1.083       .  S
C646        C647   1.415       .  A
C647        C648   1.404       .  A
C647        N654   1.432       .  S
C648        C649   1.402       .  A
C648        H653   1.084       .  S
C649        C650   1.408       .  A
C650        N651   1.432       .  S
N651        H655   1.045       .  S
N651        H656   1.046       .  S
N654        H657   1.046       .  S
N654        H658   1.045       .  S
C659        C660   1.402       .  A
C659        C664   1.401       .  A
C659        H666   1.084       .  S
C660        C661   1.411       .  A
C661        C662   1.406   1_565  A
C661        N668   1.438       .  S
C662        C663   1.407       .  A
C662        H667   1.083       .  S
C663        C664   1.414   1_545  A
C664        N665   1.433       .  S
N665        H669   1.046       .  S
N665        H670   1.046       .  S
N668        H671   1.046       .  S
N668        H672   1.046       .  S
C673        C674   1.403       .  A
C673        C678   1.402       .  A
C673        H680   1.084       .  S
C674        C675   1.410       .  A
C675        C676   1.407       .  A
C675        N682   1.432       .  S
C676        C677   1.407       .  A
C676        H681   1.084       .  S
C677        C678   1.412       .  A
C678        N679   1.433       .  S
N679        H683   1.047       .  S
N679        H684   1.045       .  S
N682        H685   1.046       .  S
N682        H686   1.046       .  S
C687        C688   1.402       .  A
C687        C692   1.401       .  A
C687        H694   1.084       .  S
C688        C689   1.413       .  A
C689        C690   1.407       .  A
C689        N696   1.438       .  S
C690        C691   1.406       .  A
C690        H695   1.083       .  S
C691        C692   1.413       .  A
C692        N693   1.433       .  S
N693        H697   1.045       .  S
N693        H698   1.046       .  S
N696        H699   1.045       .  S
N696        H700   1.046       .  S
C701        C702   1.407   1_565  A
C701        C706   1.404       .  A
C701        H708   1.084       .  S
C702        C703   1.414       .  A
C703        C704   1.405   1_545  A
C703        N710   1.432       .  S
C704        C705   1.404       .  A
C704        H709   1.084       .  S
C705        C706   1.412       .  A
C706        N707   1.433       .  S
N707        H711   1.045       .  S
N707        H712   1.046       .  S
N710        H713   1.046       .  S
N710        H714   1.046       .  S
C715        C716   1.407       .  A
C715        C720   1.403       .  A
C715        H722   1.084       .  S
C716        C717   1.420       .  A
C717        C718   1.398       .  A
C717        N724   1.433       .  S
C718        C719   1.402       .  A
C718        H723   1.084       .  S
C719        C720   1.409       .  A
C720        N721   1.432       .  S
N721        H725   1.045       .  S
N721        H726   1.046       .  S
N724        H727   1.045       .  S
N724        H728   1.045       .  S
C729        C730   1.406       .  A
C729        C734   1.402       .  A
C729        H736   1.084       .  S
C730        C731   1.414       .  A
C731        C732   1.403       .  A
C731        N738   1.432       .  S
C732        C733   1.403       .  A
C732        H737   1.084       .  S
C733        C734   1.410       .  A
C734        N735   1.433       .  S
N735        H739   1.046       .  S
N735        H740   1.046       .  S
N738        H741   1.046       .  S
N738        H742   1.045       .  S
C743        C744   1.406       .  A
C743        C748   1.401       .  A
C743        H750   1.084       .  S
C744        C745   1.415       .  A
C745        C746   1.407       .  A
C745        N752   1.438       .  S
C746        C747   1.405       .  A
C746        H751   1.083       .  S
C747        C748   1.409       .  A
C748        N749   1.432       .  S
N749        H753   1.046       .  S
N749        H754   1.045       .  S
N752        H755   1.046       .  S
N752        H756   1.045       .  S
C757        C758   1.407       .  A
C757        C762   1.404       .  A
C757        H764   1.084       .  S
C758        C759   1.413       .  A
C759        C760   1.401       .  A
C759        N766   1.433       .  S
C760        C761   1.402       .  A
C760        H765   1.084       .  S
C761        C762   1.408       .  A
C762        N763   1.433       .  S
N763        H767   1.045       .  S
N763        H768   1.046       .  S
N766        H769   1.046       .  S
N766        H770   1.045       .  S
C771        C772   1.403       .  A
C771        C776   1.405       .  A
C771        H778   1.084       .  S
C772        C773   1.408       .  A
C773        C774   1.400       .  A
C773        N780   1.433       .  S
C774        C775   1.406       .  A
C774        H779   1.084       .  S
C775        C776   1.413       .  A
C776        N777   1.432       .  S
N777        H781   1.045       .  S
N777        H782   1.046       .  S
N780        H783   1.047       .  S
N780        H784   1.045       .  S
C785        C786   1.404       .  A
C785        C790   1.401       .  A
C785        H792   1.083       .  S
C786        C787   1.410       .  A
C787        C788   1.402       .  A
C787        N794   1.432       .  S
C788        C789   1.404       .  A
C788        H793   1.084       .  S
C789        C790   1.410       .  A
C790        N791   1.437       .  S
N791        H795   1.046       .  S
N791        H796   1.045       .  S
N794        H797   1.045       .  S
N794        H798   1.046       .  S
C799        C800   1.406       .  A
C799        C804   1.403       .  A
C799        H806   1.084       .  S
C800        C801   1.413       .  A
C801        C802   1.402       .  A
C801        N808   1.432       .  S
C802        C803   1.403       .  A
C802        H807   1.084       .  S
C803        C804   1.410       .  A
C804        N805   1.433       .  S
N805        H809   1.046       .  S
N805        H810   1.046       .  S
N808        H811   1.046       .  S
N808        H812   1.046       .  S
C813        C814   1.408       .  A
C813        C818   1.403       .  A
C813        H820   1.084       .  S
C814        C815   1.414       .  A
C815        C816   1.405       .  A
C815        N822   1.432       .  S
C816        C817   1.403       .  A
C816        H821   1.084       .  S
C817        C818   1.407       .  A
C818        N819   1.433       .  S
N819        H823   1.046       .  S
N819        H824   1.045       .  S
N822        H825   1.046       .  S
N822        H826   1.045       .  S
C827        C828   1.403       .  A
C827        C832   1.404       .  A
C827        H834   1.084       .  S
C828        C829   1.409       .  A
C829        C830   1.403       .  A
C829        N836   1.433       .  S
C830        C831   1.406       .  A
C830        H835   1.084       .  S
C831        C832   1.415       .  A
C832        N833   1.438       .  S
N833        H837   1.046       .  S
N833        H838   1.045       .  S
N836        H839   1.046       .  S
N836        H840   1.046       .  S
C841        C842   1.404       .  A
C841        C846   1.405       .  A
C841        H848   1.084       .  S
C842        C843   1.414       .  A
C843        C844   1.403       .  A
C843        N850   1.433       .  S
C844        C845   1.403       .  A
C844        H849   1.084       .  S
C845        C846   1.415       .  A
C846        N847   1.433       .  S
N847        H851   1.046       .  S
N847        H852   1.046       .  S
N850        H853   1.046       .  S
N850        H854   1.046       .  S
C855        C856   1.403       .  A
C855        C860   1.401       .  A
C855        H862   1.084       .  S
C856        C857   1.412       .  A
C857        C858   1.402       .  A
C857        N864   1.433       .  S
C858        C859   1.405       .  A
C858        H863   1.084       .  S
C859        C860   1.412       .  A
C860        N861   1.432       .  S
N861        H865   1.046       .  S
N861        H866   1.046       .  S
N864        H867   1.046       .  S
N864        H868   1.046       .  S
C869        C870   1.404       .  A
C869        C874   1.401       .  A
C869        H876   1.084       .  S
C870        C871   1.410       .  A
C871        C872   1.402       .  A
C871        N878   1.432       .  S
C872        C873   1.404       .  A
C872        H877   1.084       .  S
C873        C874   1.410       .  A
C874        N875   1.433       .  S
N875        H879   1.044       .  S
N875        H880   1.047       .  S
N878        H881   1.045       .  S
N878        H882   1.046       .  S
C883        C884   1.405       .  A
C883        C888   1.396       .  A
C883        H890   1.084       .  S
C884        C885   1.415       .  A
C885        C886   1.406       .  A
C885        N892   1.438       .  S
C886        C887   1.404       .  A
C886        H891   1.084       .  S
C887        C888   1.414       .  A
C888        N889   1.433       .  S
N889        H893   1.044       .  S
N889        H894   1.046       .  S
N892        H895   1.046       .  S
N892        H896   1.046       .  S
C897        C898   1.403       .  A
C897        C902   1.401       .  A
C897        H904   1.084       .  S
C898        C899   1.414       .  A
C899        C900   1.405       .  A
C899        N906   1.438       .  S
C900        C901   1.404       .  A
C900        H905   1.084       .  S
C901        C902   1.411       .  A
C902        N903   1.433       .  S
N903        H907   1.045       .  S
N903        H908   1.046       .  S
N906        H909   1.046       .  S
N906        H910   1.045       .  S
C911        C912   1.403       .  A
C911        C916   1.403       .  A
C911        H918   1.084       .  S
C912        C913   1.410       .  A
C913        C914   1.403       .  A
C913        N920   1.432       .  S
C914        C915   1.405       .  A
C914        H919   1.084       .  S
C915        C916   1.415       .  A
C916        N917   1.438       .  S
N917        H921   1.047       .  S
N917        H922   1.044       .  S
N920        H923   1.045       .  S
N920        H924   1.046       .  S
C925        C926   1.405       .  A
C925        C930   1.402   1_556  A
C925        H932   1.084       .  S
C926        C927   1.417   1_556  A
C927        C928   1.399       .  A
C927        N934   1.433       .  S
C928        C929   1.406       .  A
C928        H933   1.084       .  S
C929        C930   1.412       .  A
C930        N931   1.432       .  S
N931        H935   1.046       .  S
N931        H936   1.045   1_554  S
N934        H937   1.046   1_554  S
N934        H938   1.044   1_554  S
C939        C940   1.405       .  A
C939        C944   1.404       .  A
C939        H946   1.084       .  S
C940        C941   1.419       .  A
C941        C942   1.396       .  A
C941        N948   1.433       .  S
C942        C943   1.402       .  A
C942        H947   1.084       .  S
C943        C944   1.413       .  A
C944        N945   1.433       .  S
N945        H949   1.046       .  S
N945        H950   1.046       .  S
N948        H951   1.045       .  S
N948        H952   1.046       .  S
C953        C954   1.406       .  A
C953        C958   1.405       .  A
C953        H960   1.084       .  S
C954        C955   1.411       .  A
C955        C956   1.402       .  A
C955        N962   1.433       .  S
C956        C957   1.405       .  A
C956        H961   1.084       .  S
C957        C958   1.411       .  A
C958        N959   1.432       .  S
N959        H963   1.045       .  S
N959        H964   1.046       .  S
N962        H965   1.046       .  S
N962        H966   1.046       .  S
C967        C968   1.405       .  A
C967        C972   1.403       .  A
C967        H974   1.084       .  S
C968        C969   1.411       .  A
C969        C970   1.402       .  A
C969        N976   1.433       .  S
C970        C971   1.404       .  A
C970        H975   1.084       .  S
C971        C972   1.411       .  A
C972        N973   1.432       .  S
N973        H977   1.046       .  S
N973        H978   1.045       .  S
N976        H979   1.046       .  S
N976        H980   1.045       .  S
C981        C982   1.405   1_554  A
C981        C986   1.400       .  A
C981        H988   1.084       .  S
C982        C983   1.413       .  A
C983        C984   1.403   1_556  A
C983        N990   1.432       .  S
C984        C985   1.404       .  A
C984        H989   1.084       .  S
C985        C986   1.418       .  A
C986        N987   1.432       .  S
N987        H991   1.042       .  S
N987        H992   1.047       .  S
N990        H993   1.045       .  S
N990        H994   1.046       .  S
C995        C996   1.405       .  A
C995       C1000   1.402       .  A
C995       H1002   1.084       .  S
C996        C997   1.418       .  A
C997        C998   1.400       .  A
C997       N1004   1.432       .  S
C998        C999   1.405       .  A
C998       H1003   1.084       .  S
C999       C1000   1.411       .  A
C1000      N1001   1.433       .  S
N1001      H1005   1.046       .  S
N1001      H1006   1.045       .  S
N1004      H1007   1.046       .  S
N1004      H1008   1.044       .  S
