geometry optimzed in LAMMPS
_audit_creation_date              2020-12-01 
_audit_creation_method            'lammps2cif' 
_symmetry_space_group_name_H-M    'P1' 
_symmetry_Int_Tables_number       1 
_symmetry_cell_setting            triclinic 
loop_ 
_symmetry_equiv_pos_as_xyz 
  x,y,z 
_cell_length_a                    31.38067246 
_cell_length_b                    31.442785457196923 
_cell_length_c                    53.37410491673677 
_cell_angle_alpha                 90.20567786932187 
_cell_angle_beta                  89.99482895173126 
_cell_angle_gamma                 90.76048967427184 
loop_ 
_atom_site_label 
_atom_site_type_symbol 
_atom_site_fract_x 
_atom_site_fract_y 
_atom_site_fract_z 
_atom_site_charge 
O1          O  0.13838113  0.85780816  0.58078355    -0.73000
O2          O  0.08179746  0.93517490  0.53134138    -0.73900
O3          O  0.05922756  0.89864613  0.57692429    -0.62600
O4          O  0.16373264  0.89592886  0.53395027    -0.71000
O5          O  0.13761745  0.83995782  0.51340728    -0.70500
O6          O  0.03294003  0.84247329  0.55684137    -0.61800
O7          O  0.05573830  0.87859489  0.51131021    -0.74300
O8          O  0.11286542  0.80238398  0.55932618    -0.73100
Cu9        Cu  0.11215903  0.89884807  0.55633946     1.04600
Cu10       Cu  0.08426976  0.83891547  0.53441756     1.04300
C11         C  0.13261735  0.81768354  0.57823670     0.93200
C12         C  0.05701309  0.91870197  0.51482974     0.92400
C13         C  0.02913539  0.87163125  0.57345708     0.84500
C14         C  0.16736990  0.86752978  0.51691727     0.90800
O15         O  0.90330908  0.83398427  0.65868128    -0.73000
O16         O  0.82686891  0.78047543  0.70887358    -0.73900
O17         O  0.86108308  0.75423971  0.66302963    -0.62600
O18         O  0.86833153  0.86176061  0.70448374    -0.71000
O19         O  0.81254736  0.88663865  0.68410942    -0.70500
O20         O  0.80503389  0.77968819  0.64313267    -0.61800
O21         O  0.77031851  0.80500939  0.68896830    -0.74300
O22         O  0.84783599  0.85855835  0.63755130    -0.73100
Cu23       Cu  0.86679244  0.80701331  0.68456240     1.04600
Cu24       Cu  0.80692979  0.83369583  0.66287988     1.04300
C25         C  0.88795107  0.85325802  0.63984405     0.93200
C26         C  0.78658434  0.78187487  0.70606994     0.92400
C27         C  0.83158137  0.74986733  0.64662902     0.84500
C28         C  0.84195795  0.89166413  0.70049219     0.90800
O29         O  0.17354053  0.64771827  0.64215729    -0.73000
O30         O  0.16565719  0.54201907  0.68328231    -0.73900
O31         O  0.12634374  0.57111842  0.63822792    -0.62600
O32         O  0.21183406  0.62233170  0.68693726    -0.71000
O33         O  0.15816220  0.64971017  0.70834322    -0.70500
O34         O  0.07445939  0.59789475  0.66144513    -0.61800
O35         O  0.11403379  0.57009455  0.70621687    -0.74300
O36         O  0.12038909  0.67581085  0.66352083    -0.73100
Cu37       Cu  0.17123305  0.59445967  0.66202050     1.04600
Cu38       Cu  0.11495811  0.62405363  0.68572544     1.04300
C39         C  0.14838746  0.67848999  0.64610172     0.93200
C40         C  0.13871575  0.53918214  0.70113525     0.92400
C41         C  0.08673800  0.57814153  0.64189339     0.84500
C42         C  0.19804295  0.64664876  0.70437971     0.90800
O43         O  0.84158933  0.59450720  0.51095651    -0.73000
O44         O  0.94562606  0.58999339  0.55546614    -0.73900
O45         O  0.92348012  0.55583919  0.50844404    -0.62600
O46         O  0.86567136  0.62994639  0.55766332    -0.71000
O47         O  0.83901583  0.57383686  0.57775942    -0.70500
O48         O  0.89834159  0.49838223  0.52753474    -0.61800
O49         O  0.91806804  0.53349278  0.57462186    -0.74300
O50         O  0.81616260  0.53701989  0.53011081    -0.73100
Cu51       Cu  0.89476738  0.59448733  0.53235876     1.04600
Cu52       Cu  0.86660859  0.53363224  0.55301145     1.04300
C53         C  0.81240972  0.56609013  0.51364735     0.93200
C54         C  0.94777521  0.56121582  0.57232499     0.92400
C55         C  0.92243417  0.51552803  0.51093026     0.84500
C56         C  0.84483455  0.61407443  0.57593210     0.90800
O57         O  0.63223991  0.57073500  0.82591659    -0.73000
O58         O  0.70424250  0.63214574  0.77508655    -0.73900
O59         O  0.66818918  0.65245208  0.82147616    -0.62600
O60         O  0.66855598  0.54757893  0.77886981    -0.71000
O61         O  0.61214358  0.56996789  0.75791509    -0.70500
O62         O  0.60813786  0.67207030  0.80297642    -0.61800
O63         O  0.64578323  0.65482636  0.75630543    -0.74300
O64         O  0.57456077  0.58932533  0.80468324    -0.73100
Cu65       Cu  0.67051103  0.59967141  0.80079575     1.04600
Cu66       Cu  0.60826655  0.62209683  0.77960818     1.04300
C67         C  0.59173809  0.57194215  0.82366977     0.93200
C68         C  0.68621041  0.65560659  0.75879323     0.92400
C69         C  0.63713190  0.67794075  0.81948364     0.84500
C70         C  0.64009626  0.54165617  0.76203883     0.90800
O71         O  0.43250962  0.52817134  0.89559614    -0.73000
O72         O  0.32848293  0.53409138  0.93822886    -0.73900
O73         O  0.35511750  0.57143390  0.89142344    -0.62600
O74         O  0.40909909  0.49258289  0.94170596    -0.71000
O75         O  0.43447194  0.54877657  0.96235534    -0.70500
O76         O  0.38468500  0.62553261  0.91228909    -0.61800
O77         O  0.35459771  0.59058189  0.95826085    -0.74300
O78         O  0.46170992  0.58241571  0.91624061    -0.73100
Cu79       Cu  0.37989552  0.52959133  0.91620866     1.04600
Cu80       Cu  0.40942795  0.58871918  0.93813278     1.04300
C81         C  0.46354820  0.55415231  0.89894775     0.93200
C82         C  0.32477163  0.56294192  0.95494410     0.92400
C83         C  0.36487849  0.61098328  0.89321651     0.84500
C84         C  0.43231385  0.50866482  0.95915604     0.90800
O85         O  0.28246980  0.79239578  0.77785047    -0.73000
O86         O  0.35874484  0.85009600  0.82874960    -0.73900
O87         O  0.31973758  0.87682964  0.78281493    -0.62600
O88         O  0.32065917  0.76889380  0.82309141    -0.71000
O89         O  0.37847692  0.74887989  0.80244174    -0.70500
O90         O  0.37460705  0.85460229  0.76039860    -0.61800
O91         O  0.41454961  0.83085971  0.80606047    -0.74300
O92         O  0.33924711  0.77023463  0.75711873    -0.73100
Cu93       Cu  0.31828811  0.82317551  0.80367658     1.04600
Cu94       Cu  0.37856885  0.80071599  0.78063691     1.04300
C95         C  0.29907018  0.76924144  0.76075944     0.93200
C96         C  0.39909344  0.84788169  0.82575743     0.92400
C97         C  0.34708992  0.88306417  0.76538654     0.84500
C98         C  0.35049191  0.74239485  0.81946806     0.90800
O99         O  0.60491740  0.79170794  0.91573898    -0.73000
O100        O  0.55527319  0.86940225  0.96537371    -0.73900
O101        O  0.52847796  0.83647292  0.91896371    -0.62600
O102        O  0.63505106  0.82639280  0.96183053    -0.71000
O103        O  0.66325398  0.88065152  0.94092489    -0.70500
O104        O  0.55885890  0.89058174  0.89894345    -0.61800
O105        O  0.58282500  0.92498447  0.94545480    -0.74300
O106        O  0.63458864  0.84480285  0.89434559    -0.73100
Cu107      Cu  0.58033094  0.82920670  0.94135917     1.04600
Cu108      Cu  0.61134702  0.88731453  0.91949784     1.04300
C109        C  0.62440761  0.80539757  0.89639345     0.93200
C110        C  0.55791608  0.90941109  0.96225468     0.92400
C111        C  0.52749393  0.86491175  0.90182293     0.84500
C112        C  0.66660071  0.85155896  0.95739413     0.90800
O113        O  0.63746095  0.35134520  0.08002384    -0.73000
O114        O  0.57932018  0.42719061  0.02988925    -0.73900
O115        O  0.55831397  0.39134656  0.07621318    -0.62600
O116        O  0.66190699  0.38921811  0.03307782    -0.71000
O117        O  0.63768322  0.33248220  0.01264528    -0.70500
O118        O  0.53132949  0.33517900  0.05620008    -0.61800
O119        O  0.55523723  0.36986643  0.00981383    -0.74300
O120        O  0.61205452  0.29546630  0.05897911    -0.73100
Cu121      Cu  0.61050385  0.39175987  0.05533686     1.04600
Cu122      Cu  0.58346891  0.33125178  0.03362723     1.04300
C123        C  0.63209405  0.31110467  0.07769901     0.93200
C124        C  0.55600061  0.41004991  0.01282738     0.92400
C125        C  0.52838130  0.36408218  0.07309488     0.84500
C126        C  0.66659322  0.36112552  0.01600228     0.90800
O127        O  0.30806861  0.27824124  0.14294168    -0.73000
O128        O  0.31214359  0.38148110  0.18645838    -0.73900
O129        O  0.35269481  0.35615120  0.14082012    -0.62600
O130        O  0.26867635  0.30005138  0.18840873    -0.71000
O131        O  0.32330287  0.27251756  0.20883698    -0.70500
O132        O  0.40516195  0.33019176  0.16378407    -0.61800
O133        O  0.36415539  0.35405259  0.20916378    -0.74300
O134        O  0.36245906  0.25061510  0.16348770    -0.73100
Cu135      Cu  0.30842766  0.33025521  0.16409187     1.04600
Cu136      Cu  0.36556367  0.30117791  0.18719848     1.04300
C137        C  0.33490256  0.24859182  0.14579564     0.93200
C138        C  0.33874425  0.38455670  0.20448367     0.92400
C139        C  0.39249597  0.35035725  0.14456683     0.84500
C140        C  0.28334876  0.27489746  0.20505297     0.90800
O141        O  0.64506173  0.14773670  0.21074999    -0.73000
O142        O  0.57251377  0.09142388  0.15957103    -0.73900
O143        O  0.60449810  0.06628537  0.20677357    -0.62600
O144        O  0.61384558  0.17157335  0.16393871    -0.71000
O145        O  0.67177064  0.14616264  0.14582427    -0.70500
O146        O  0.66021728  0.03954681  0.18683481    -0.61800
O147        O  0.62939974  0.06733187  0.13946238    -0.74300
O148        O  0.70263315  0.12122931  0.19274789    -0.73100
Cu149      Cu  0.60699350  0.11985513  0.18598833     1.04600
Cu150      Cu  0.66808374  0.09232441  0.16573300     1.04300
C151        C  0.68547753  0.14568523  0.20896897     0.93200
C152        C  0.58917189  0.07227315  0.14097019     0.92400
C153        C  0.63054242  0.03595274  0.20313557     0.84500
C154        C  0.64460969  0.17577412  0.14835938     0.90800
O155        O  0.35035282  0.09144503  0.00841517    -0.73000
O156        O  0.45312354  0.08548583  0.05367056    -0.73900
O157        O  0.43108601  0.05126528  0.00711989    -0.62600
O158        O  0.37432472  0.12790158  0.05524796    -0.71000
O159        O  0.34704826  0.07335905  0.07639329    -0.70500
O160        O  0.40252724  0.99500327  0.02593113    -0.61800
O161        O  0.42421473  0.02938395  0.07238641    -0.74300
O162        O  0.32148123  0.03735255  0.02930937    -0.73100
Cu163      Cu  0.40287516  0.09096353  0.03034047     1.04600
Cu164      Cu  0.37242118  0.03178480  0.05150851     1.04300
C165        C  0.31935018  0.06541976  0.01216918     0.93200
C166        C  0.45492877  0.05588469  0.07004970     0.92400
C167        C  0.42833374  0.01113148  0.00981403     0.84500
C168        C  0.35377228  0.11339662  0.07404551     0.90800
O169        O  0.85078597  0.35262580  0.32789529    -0.73000
O170        O  0.77220068  0.29342266  0.27905586    -0.73900
O171        O  0.81172423  0.27159645  0.32423533    -0.62600
O172        O  0.80993759  0.37673351  0.28160783    -0.71000
O173        O  0.86584970  0.35378676  0.26021968    -0.70500
O174        O  0.86872319  0.24984610  0.30337373    -0.61800
O175        O  0.82860968  0.27041975  0.25822978    -0.74300
O176        O  0.90609560  0.33098197  0.30549101    -0.73100
Cu177      Cu  0.80909793  0.32479718  0.30380005     1.04600
Cu178      Cu  0.86909477  0.30072677  0.28093643     1.04300
C179        C  0.89105305  0.34905536  0.32493448     0.93200
C180        C  0.78843463  0.27020323  0.26192899     0.92400
C181        C  0.84109169  0.24453293  0.32071768     0.84500
C182        C  0.83760451  0.38188216  0.26425082     0.90800
O183        O  0.10694552  0.30039182  0.41317042    -0.73000
O184        O  0.04813359  0.37688313  0.46065644    -0.73900
O185        O  0.02746707  0.34106295  0.41397217    -0.62600
O186        O  0.13013788  0.33766693  0.45985417    -0.71000
O187        O  0.15759527  0.39312137  0.43992548    -0.70500
O188        O  0.05550182  0.39733909  0.39491170    -0.61800
O189        O  0.07507162  0.43356922  0.44163147    -0.74300
O190        O  0.13373188  0.35560820  0.39232926    -0.73100
Cu191      Cu  0.07753953  0.33718825  0.43774206     1.04600
Cu192      Cu  0.10687000  0.39695840  0.41673597     1.04300
C193        C  0.12728778  0.31549989  0.39449115     0.93200
C194        C  0.04948163  0.41708513  0.45769994     0.92400
C195        C  0.02569278  0.36964460  0.39697394     0.84500
C196        C  0.16069374  0.36454556  0.45681101     0.90800
O197        O  0.10735287  0.17603379  0.30620135    -0.73000
O198        O  0.10374693  0.07025425  0.26247961    -0.73900
O199        O  0.07048545  0.09365552  0.31002798    -0.62600
O200        O  0.13939652  0.15463436  0.25867395    -0.71000
O201        O  0.19854885  0.13127172  0.27639507    -0.70500
O202        O  0.12904493  0.07226398  0.32939820    -0.61800
O203        O  0.16204202  0.04791974  0.28142040    -0.74300
O204        O  0.16668886  0.15308193  0.32379135    -0.73100
Cu205      Cu  0.10317608  0.12416224  0.28359749     1.04600
Cu206      Cu  0.16613893  0.10004616  0.30321739     1.04300
C207        C  0.13789964  0.18116594  0.32189053     0.93200
C208        C  0.13237370  0.04201219  0.26532379     0.92400
C209        C  0.08852070  0.07531976  0.32838975     0.84500
C210        C  0.17994093  0.15424856  0.26008683     0.90800
O211        O  0.93171828  0.03581831  0.40240234    -0.73000
O212        O  0.82651478  0.04730239  0.44312983    -0.73900
O213        O  0.85556023  0.08044166  0.39634972    -0.62600
O214        O  0.90642335  0.00412233  0.44900175    -0.71000
O215        O  0.93382472  0.06115815  0.46793316    -0.70500
O216        O  0.88413495  0.13563375  0.41667933    -0.61800
O217        O  0.85401143  0.10299137  0.46337611    -0.74300
O218        O  0.96092997  0.09175423  0.42140415    -0.73100
Cu219      Cu  0.87864559  0.03989630  0.42227956     1.04600
Cu220      Cu  0.90879117  0.09982168  0.44319058     1.04300
C221        C  0.96279181  0.06195898  0.40502497     0.93200
C222        C  0.82302537  0.07693591  0.45934591     0.92400
C223        C  0.86492921  0.12011561  0.39764764     0.84500
C224        C  0.93115718  0.02093608  0.46548514     0.90800
O225        O  0.60931184  0.35539866  0.70876466    -0.73000
O226        O  0.61602430  0.24886337  0.66640633    -0.73900
O227        O  0.64839840  0.27463754  0.71299534    -0.62600
O228        O  0.57490095  0.32814602  0.66203656    -0.71000
O229        O  0.63122942  0.35310301  0.64126929    -0.70500
O230        O  0.70571835  0.30134465  0.69408944    -0.61800
O231        O  0.67334872  0.27596823  0.64766912    -0.74300
O232        O  0.66495445  0.38189229  0.68801464    -0.73100
Cu233      Cu  0.61012351  0.30112768  0.68833626     1.04600
Cu234      Cu  0.67085565  0.32931307  0.66727585     1.04300
C235        C  0.63609559  0.38560236  0.70466203     0.93200
C236        C  0.64609458  0.24592857  0.65029516     0.92400
C237        C  0.68871198  0.27717916  0.71068882     0.84500
C238        C  0.59096353  0.34739263  0.64320919     0.90800
O239        O  0.37308033  0.29540218  0.55758448    -0.73000
O240        O  0.42753381  0.37320233  0.50818398    -0.73900
O241        O  0.45354748  0.33666816  0.55366417    -0.62600
O242        O  0.34523898  0.33323551  0.51217714    -0.71000
O243        O  0.32215522  0.38934169  0.53327778    -0.70500
O244        O  0.42882079  0.39223903  0.57441587    -0.61800
O245        O  0.40433091  0.42937050  0.52899466    -0.74300
O246        O  0.34946193  0.35036042  0.57958544    -0.73100
Cu247      Cu  0.40040697  0.33272160  0.53208231     1.04600
Cu248      Cu  0.37497667  0.39224486  0.55469638     1.04300
C249        C  0.35461980  0.31026738  0.57692919     0.93200
C250        C  0.42655831  0.41340093  0.51126692     0.92400
C251        C  0.45816059  0.36525184  0.57064464     0.84500
C252        C  0.31679790  0.36128147  0.51615472     0.90800
O253        O  0.35471052  0.06377584  0.64170988    -0.73000
O254        O  0.27490365  0.12115202  0.69053883    -0.73900
O255        O  0.31142550  0.14182049  0.64410985    -0.62600
O256        O  0.31706222  0.03952206  0.68849374    -0.71000
O257        O  0.37085930  0.06845308  0.70983381    -0.70500
O258        O  0.36734489  0.17008330  0.66352964    -0.61800
O259        O  0.33096453  0.14969538  0.70981709    -0.74300
O260        O  0.40907345  0.09086887  0.66332982    -0.73100
Cu261      Cu  0.31251119  0.09019232  0.66569289     1.04600
Cu262      Cu  0.37142406  0.12044329  0.68742479     1.04300
C263        C  0.39481322  0.07005114  0.64450955     0.93200
C264        C  0.29077449  0.14723317  0.70663899     0.92400
C265        C  0.33841299  0.17218643  0.64664434     0.84500
C266        C  0.34481317  0.03747809  0.70594044     0.90800
O267        O  0.56098067  0.02741363  0.57546357    -0.73000
O268        O  0.66408101  0.04108036  0.53219016    -0.73900
O269        O  0.63763045  0.07410280  0.57933267    -0.62600
O270        O  0.58390079  0.99456403  0.52821710    -0.71000
O271        O  0.55501192  0.05015173  0.50983226    -0.70500
O272        O  0.60918581  0.12807867  0.55880526    -0.61800
O273        O  0.63451755  0.09477189  0.51198175    -0.74300
O274        O  0.53137641  0.08254986  0.55674073    -0.73100
Cu275      Cu  0.61295248  0.03221501  0.55426906     1.04600
Cu276      Cu  0.58170003  0.09067601  0.53356315     1.04300
C277        C  0.53036169  0.05341346  0.57343074     0.93200
C278        C  0.66620182  0.07045938  0.51575806     0.92400
C279        C  0.63058581  0.11389612  0.57718503     0.84500
C280        C  0.55857965  0.00999610  0.51186427     0.90800
O281        O  0.16386145  0.38046145  0.77616074    -0.73000
O282        O  0.16970989  0.27893983  0.82018483    -0.73900
O283        O  0.20457696  0.29883988  0.77337202    -0.62600
O284        O  0.12712552  0.35668857  0.82340750    -0.71000
O285        O  0.07177391  0.32981761  0.80256046    -0.70500
O286        O  0.14767024  0.27123996  0.75448805    -0.61800
O287        O  0.11317009  0.25043788  0.80129750    -0.74300
O288        O  0.10856943  0.35307512  0.75563150    -0.73100
Cu289      Cu  0.16831697  0.33006959  0.79876106     1.04600
Cu290      Cu  0.10834972  0.30047986  0.77769850     1.04300
C291        C  0.13564196  0.38340495  0.75904933     0.93200
C292        C  0.14261874  0.24866852  0.81787549     0.92400
C293        C  0.18797412  0.27331843  0.75721098     0.84500
C294        C  0.08687436  0.35056375  0.82118117     0.90800
O295        O  0.84749525  0.35212274  0.89174917    -0.73000
O296        O  0.90709874  0.43301345  0.93949969    -0.73900
O297        O  0.92681088  0.39476071  0.89337078    -0.62600
O298        O  0.82483791  0.39145549  0.93854564    -0.71000
O299        O  0.85058296  0.33562489  0.95849781    -0.70500
O300        O  0.95535587  0.34120232  0.91408274    -0.61800
O301        O  0.93227828  0.37785447  0.96031738    -0.74300
O302        O  0.87566312  0.29832566  0.91250261    -0.73100
Cu303      Cu  0.87529886  0.39479882  0.91525539     1.04600
Cu304      Cu  0.90417045  0.33642640  0.93719534     1.04300
C305        C  0.85424443  0.31227844  0.89404185     0.93200
C306        C  0.93115026  0.41785617  0.95654631     0.92400
C307        C  0.95717137  0.36868519  0.89644425     0.84500
C308        C  0.82098133  0.36269845  0.95528513     0.90800
O309        O  0.81040533  0.14683525  0.82397968    -0.73000
O310        O  0.81798918  0.04753967  0.77771012    -0.73900
O311        O  0.85668828  0.07145296  0.82511911    -0.62600
O312        O  0.77397656  0.12663993  0.77745771    -0.71000
O313        O  0.82915217  0.15441379  0.75701368    -0.70500
O314        O  0.90921214  0.10431501  0.80466693    -0.61800
O315        O  0.87364271  0.07633530  0.75814139    -0.74300
O316        O  0.86264410  0.17955507  0.80338567    -0.73100
Cu317      Cu  0.81285635  0.09650041  0.80157345     1.04600
Cu318      Cu  0.87052606  0.12930886  0.77997405     1.04300
C319        C  0.83532759  0.17876905  0.82123711     0.93200
C320        C  0.84631645  0.04603284  0.76057865     0.92400
C321        C  0.89579735  0.08327915  0.82345954     0.84500
C322        C  0.78915955  0.15131836  0.76053002     0.90800
O323        O  0.13748797  0.09292848  0.95689551    -0.73000
O324        O  0.03222490  0.09471062  0.91462688    -0.73900
O325        O  0.05468249  0.05573501  0.95951744    -0.62600
O326        O  0.11336798  0.13282328  0.91168805    -0.71000
O327        O  0.13357692  0.07791010  0.88849033    -0.70500
O328        O  0.07871500  0.99965154  0.93882404    -0.61800
O329        O  0.05351179  0.03729162  0.89401277    -0.74300
O330        O  0.16169898  0.03939666  0.93396456    -0.73100
Cu331      Cu  0.08395019  0.09589463  0.93654002     1.04600
Cu332      Cu  0.10807749  0.03648865  0.91321739     1.04300
C333        C  0.16668868  0.06637737  0.95173050     0.93200
C334        C  0.02611732  0.06619881  0.89782299     0.92400
C335        C  0.05531847  0.01565857  0.95599568     0.84500
C336        C  0.13060756  0.11803039  0.89190803     0.90800
O337        O  0.32111247  0.64937714  0.26043326    -0.73000
O338        O  0.39874173  0.59286306  0.30683098    -0.73900
O339        O  0.36074460  0.56884715  0.26093365    -0.62600
O340        O  0.35708979  0.67176393  0.30639503    -0.71000
O341        O  0.30102914  0.64438736  0.32597111    -0.70500
O342        O  0.30688255  0.54057932  0.28237883    -0.61800
O343        O  0.34456023  0.56649497  0.32886962    -0.74300
O344        O  0.26457049  0.62203506  0.27963563    -0.73100
Cu345      Cu  0.36122135  0.62138618  0.28287973     1.04600
Cu346      Cu  0.30218226  0.59200793  0.30478412     1.04300
C347        C  0.28092682  0.64689551  0.26313818     0.93200
C348        C  0.38461815  0.57263627  0.32575989     0.92400
C349        C  0.33481601  0.53792130  0.26503999     0.84500
C350        C  0.32809562  0.67459495  0.32321310     0.90800
O351        O  0.62978374  0.59608497  0.45567878    -0.73000
O352        O  0.52725183  0.59124453  0.41006105    -0.73900
O353        O  0.54628527  0.55815730  0.45738016    -0.62600
O354        O  0.60907671  0.63038237  0.40814460    -0.64600
O355        O  0.63375700  0.57315329  0.38877907    -0.70500
O356        O  0.57094911  0.50014275  0.43906243    -0.61800
O357        O  0.55318450  0.53358683  0.39182273    -0.74300
O358        O  0.65430290  0.53854832  0.43680913    -0.73100
Cu359      Cu  0.57747371  0.59599321  0.43355807     1.04600
Cu360      Cu  0.60424377  0.53434943  0.41364013     1.04300
C361        C  0.65861738  0.56798391  0.45321117     0.93200
C362        C  0.52420875  0.56139208  0.39376563     0.92400
C363        C  0.54672336  0.51775946  0.45526213     0.84500
C364        C  0.62975040  0.61352210  0.39016532     0.90800
O365        O  0.40991588  0.92753371  0.43890280    -0.73000
O366        O  0.34549624  0.85281855  0.39015820    -0.73900
O367        O  0.32462718  0.89356405  0.43712501    -0.62600
O368        O  0.42804306  0.88836913  0.39295202    -0.71000
O369        O  0.44832590  0.83010657  0.41276169    -0.70500
O370        O  0.34664304  0.83731836  0.45816575    -0.61800
O371        O  0.36513532  0.79642118  0.41208272    -0.74300
O372        O  0.43210522  0.87034905  0.45877588    -0.73100
Cu373      Cu  0.37586621  0.89266974  0.41423889     1.04600
Cu374      Cu  0.39850301  0.83170227  0.43630025     1.04300
C375        C  0.43364723  0.91051999  0.45545615     0.93200
C376        C  0.34743112  0.81248345  0.39288533     0.92400
C377        C  0.31922473  0.86642466  0.45466499     0.84500
C378        C  0.45420834  0.85803256  0.39570057     0.90800
O379        O  0.65696631  0.87667153  0.27620206    -0.73000
O380        O  0.67164439  0.77264881  0.31776789    -0.73900
O381        O  0.70522544  0.79953691  0.27165956    -0.62600
O382        O  0.62217938  0.84622237  0.32240189    -0.71000
O383        O  0.56994833  0.81361171  0.30143274    -0.70500
O384        O  0.65108735  0.76969217  0.25130900    -0.61800
O385        O  0.61918509  0.74003279  0.29724423    -0.74300
O386        O  0.60362377  0.84629215  0.25528862    -0.73100
Cu387      Cu  0.66588932  0.82525386  0.29751356     1.04600
Cu388      Cu  0.60911574  0.79169088  0.27546112     1.04300
C389        C  0.62819465  0.87847497  0.25934516     0.93200
C390        C  0.64770263  0.74003530  0.31442656     0.92400
C391        C  0.69108847  0.77452079  0.25449427     0.84500
C392        C  0.58313554  0.83441745  0.32049417     0.90800
O393        O  0.13457683  0.85624337  0.14196726    -0.73000
O394        O  0.20329516  0.79863165  0.19544269    -0.73900
O395        O  0.17300197  0.77678389  0.14792596    -0.62600
O396        O  0.16663234  0.88110855  0.19056967    -0.71000
O397        O  0.10732948  0.85716398  0.20854005    -0.70500
O398        O  0.11377810  0.75151885  0.16524130    -0.61800
O399        O  0.14375583  0.77432582  0.21292185    -0.74300
O400        O  0.07594698  0.83205587  0.16071983    -0.73100
Cu401      Cu  0.17143618  0.82947401  0.16853115     1.04600
Cu402      Cu  0.10813264  0.80325198  0.18757684     1.04300
C403        C  0.09408649  0.85109332  0.14247961     0.93200
C404        C  0.18426853  0.77474931  0.21141643     0.92400
C405        C  0.14474853  0.74744860  0.14983257     0.84500
C406        C  0.13643455  0.88582670  0.20634760     0.90800
O407        O  0.88946452  0.78874561  0.05273056    -0.73000
O408        O  0.93621984  0.87043957  0.00393631    -0.73900
O409        O  0.96482433  0.83751064  0.04985007    -0.62600
O410        O  0.85772088  0.82386799  0.00726241    -0.71000
O411        O  0.82868287  0.87618888  0.02914532    -0.70500
O412        O  0.93349122  0.89009333  0.07007191    -0.61800
O413        O  0.90725943  0.92429850  0.02443209    -0.74300
O414        O  0.85902452  0.84042536  0.07459329    -0.73100
Cu415      Cu  0.91277560  0.82832501  0.02753122     1.04600
Cu416      Cu  0.88072580  0.88464703  0.05006553     1.04300
C417        C  0.86949968  0.80145410  0.07204521     0.93200
C418        C  0.93177852  0.91021952  0.00716717     0.92400
C419        C  0.96522012  0.86576669  0.06725879     0.84500
C420        C  0.82595919  0.84778692  0.01211363     0.90800
O421        O  0.05720170  0.55633616  0.00859589    -0.73000
O422        O  0.11659280  0.63080590  0.05808009    -0.73900
O423        O  0.14047959  0.59522340  0.01121231    -0.62600
O424        O  0.03549796  0.59022342  0.05551155    -0.71000
O425        O  0.06158524  0.53366449  0.07449142    -0.70500
O426        O  0.16458801  0.53840870  0.03081922    -0.61800
O427        O  0.14118299  0.57459740  0.07834330    -0.74300
O428        O  0.08145074  0.49915929  0.02789280    -0.73100
Cu429      Cu  0.08690392  0.59514596  0.03255329     1.04600
Cu430      Cu  0.11352303  0.53450151  0.05336210     1.04300
C431        C  0.05713062  0.51613387  0.01159457     0.93200
C432        C  0.13609385  0.61477240  0.07665616     0.92400
C433        C  0.16937371  0.56732978  0.01426282     0.84500
C434        C  0.03200218  0.56067170  0.07189045     0.90800
O435        O  0.77713307  0.62268941  0.18734309    -0.73000
O436        O  0.85629732  0.56242082  0.14010051    -0.73900
O437        O  0.81462195  0.53932592  0.18641325    -0.62600
O438        O  0.81747105  0.64233389  0.14215701    -0.71000
O439        O  0.87444888  0.66604509  0.16283512    -0.70500
O440        O  0.86879988  0.56533311  0.20845658    -0.61800
O441        O  0.91100367  0.58540859  0.16307238    -0.74300
O442        O  0.83301252  0.64853134  0.20790786    -0.73100
Cu443      Cu  0.81429926  0.59032509  0.16345459     1.04600
Cu444      Cu  0.87357286  0.61684536  0.18646696     1.04300
C445        C  0.79301897  0.64828738  0.20362963     0.93200
C446        C  0.89646267  0.56674423  0.14357067     0.92400
C447        C  0.84143887  0.53568671  0.20431485     0.84500
C448        C  0.84687197  0.67018966  0.14541722     0.90800
C449        C  0.99433434  0.55751011  0.08863823    -0.00200
C450        C  0.99937269  0.53771836  0.11204466    -0.12000
C451        C  0.96635740  0.53687770  0.12961411     0.02100
C452        C  0.92695320  0.55527173  0.12376621    -0.00200
C453        C  0.92062619  0.57207437  0.09973111    -0.12000
C454        C  0.95396565  0.57372198  0.08224517     0.02000
H455        H  0.02986802  0.52443427  0.11716227     0.14900
H456        H  0.89049201  0.58674075  0.09521496     0.14900
C457        C  0.94592200  0.59286473  0.05818701     0.36600
C458        C  0.97405607  0.51803117  0.15380269     0.36500
N459        N  0.93939283  0.60831649  0.03894102    -0.43800
N460        N  0.98031468  0.50287118  0.17315639    -0.43700
C461        C  0.86283762  0.77083647  0.09236036    -0.00200
C462        C  0.82163715  0.76022794  0.10049584    -0.12000
C463        C  0.81530956  0.72770316  0.11810387     0.02100
C464        C  0.85082838  0.70634671  0.12811921    -0.00200
C465        C  0.89193099  0.71839946  0.12063425    -0.12000
C466        C  0.89820335  0.74989573  0.10274379     0.02000
H467        H  0.79448527  0.77631854  0.09253517     0.14900
H468        H  0.91934142  0.70204650  0.12814603     0.14900
C469        C  0.94149961  0.75965930  0.09527804     0.36600
C470        C  0.77232775  0.71726241  0.12573332     0.36500
N471        N  0.97643056  0.76666622  0.08951876    -0.43800
N472        N  0.73779052  0.70902111  0.13177222    -0.43700
C473        C  0.06701384  0.86428097  0.12141991    -0.00200
C474        C  0.02877477  0.88439925  0.12716793    -0.12000
C475        C  0.99613236  0.88718319  0.10951138     0.02100
C476        C  0.00138887  0.86928581  0.08523665    -0.00200
C477        C  0.04092036  0.85151196  0.07902493    -0.12000
C478        C  0.07366797  0.84893166  0.09685907     0.02000
H479        H  0.02342302  0.89579816  0.14611849     0.14900
H480        H  0.04566066  0.83794730  0.06054162     0.14900
C481        C  0.11219115  0.82703593  0.09013231     0.36600
C482        C  0.95661910  0.90559287  0.11786559     0.36500
N483        N  0.14301079  0.80945785  0.08466431    -0.43800
N484        N  0.92505817  0.92030641  0.12471989    -0.43700
C485        C  0.14803016  0.64329543  0.09742273    -0.00200
C486        C  0.12658277  0.63797528  0.12027227    -0.12000
C487        C  0.12596188  0.67076058  0.13812227     0.02100
C488        C  0.14779872  0.70953688  0.13327486    -0.00200
C489        C  0.17233316  0.71302623  0.11127471    -0.12000
C490        C  0.17210000  0.68063856  0.09328581     0.02000
H491        H  0.10767813  0.60933271  0.12341320     0.14900
H492        H  0.19021111  0.74201651  0.10743386     0.14900
C493        C  0.19596242  0.68692465  0.07045890     0.36600
C494        C  0.10183961  0.66389269  0.16081785     0.36500
N495        N  0.21547749  0.69226324  0.05232867    -0.43800
N496        N  0.08240220  0.65828337  0.17896399    -0.43700
C497        C  0.71998362  0.74707119  0.23961071    -0.00200
C498        C  0.70217845  0.72310739  0.21979337    -0.12000
C499        C  0.72448127  0.69016273  0.20828697     0.02100
C500        C  0.76614698  0.68044414  0.21641709    -0.00200
C501        C  0.78463404  0.70559072  0.23552777    -0.12000
C502        C  0.76226490  0.73858537  0.24703701     0.02000
H503        H  0.66993247  0.72927495  0.21359386     0.14900
H504        H  0.81690690  0.69947947  0.24168068     0.14900
C505        C  0.78343341  0.76209251  0.26683124     0.36600
C506        C  0.70340959  0.66739765  0.18814747     0.36500
N507        N  0.80061551  0.78086754  0.28264332    -0.43800
N508        N  0.68627708  0.64932449  0.17203800    -0.43700
C509        C  0.55305966  0.84114157  0.34120657    -0.00200
C510        C  0.54385970  0.88233075  0.34949811    -0.12000
C511        C  0.51228392  0.88886559  0.36770300     0.02100
C512        C  0.49022959  0.85358481  0.37813673    -0.00200
C513        C  0.50107639  0.81243976  0.37057486    -0.12000
C514        C  0.53185639  0.80595768  0.35218632     0.02000
H515        H  0.56039782  0.90935360  0.34124526     0.14900
H516        H  0.48437068  0.78515795  0.37844399     0.14900
C517        C  0.54110837  0.76265911  0.34504528     0.36600
C518        C  0.50358373  0.93186032  0.37556312     0.36500
N519        N  0.54806712  0.72779612  0.33955768    -0.43800
N520        N  0.49666676  0.96633071  0.38188770    -0.43700
C521        C  0.64540678  0.64138128  0.36985839    -0.00200
C522        C  0.63403964  0.63133178  0.34507167    -0.12000
C523        C  0.63685625  0.66208526  0.32612618     0.02100
C524        C  0.65146816  0.70367949  0.33196444    -0.00200
C525        C  0.66709426  0.71201723  0.35622091    -0.12000
C526        C  0.66402409  0.68143796  0.37509712     0.02000
H527        H  0.62016600  0.60036557  0.34082699     0.14900
H528        H  0.67954715  0.74336929  0.36095010     0.14900
C529        C  0.67930953  0.69229776  0.39984966     0.36600
C530        C  0.62395304  0.65024766  0.30107451     0.36500
N531        N  0.69189739  0.70116118  0.41958678    -0.43800
N532        N  0.61379862  0.64061709  0.28097496    -0.43700
C533        C  0.25431520  0.67641948  0.24850271    -0.00200
C534        C  0.21533826  0.68975325  0.25858191    -0.12000
C535        C  0.19268776  0.72306744  0.24766348     0.02100
C536        C  0.20902814  0.74372950  0.22610726    -0.00200
C537        C  0.24778270  0.73008206  0.21599107    -0.12000
C538        C  0.27020723  0.69676682  0.22671640     0.02000
H539        H  0.20321772  0.67520680  0.27559232     0.14900
H540        H  0.26019499  0.74463383  0.19904720     0.14900
C541        C  0.30926941  0.68408619  0.21460377     0.36600
C542        C  0.15352006  0.73603615  0.25947089     0.36500
N543        N  0.34063774  0.67412171  0.20494898    -0.43800
N544        N  0.12215721  0.74637089  0.26898883    -0.43700
C545        C  0.48701062  0.55880817  0.37691312    -0.00200
C546        C  0.44690734  0.57087587  0.38594227    -0.12000
C547        C  0.41140123  0.57137576  0.37006210     0.02100
C548        C  0.41598197  0.55983129  0.34464864    -0.00200
C549        C  0.45551288  0.54553451  0.33601872    -0.12000
C550        C  0.49095673  0.54507273  0.35178662     0.02000
H551        H  0.44353935  0.58099808  0.40528343     0.14900
H552        H  0.45935001  0.53730918  0.31638727     0.14900
C553        C  0.53157809  0.53396849  0.34098707     0.36600
C554        C  0.37175361  0.58739749  0.37975754     0.36500
N555        N  0.56408671  0.52524943  0.33225317    -0.43800
N556        N  0.34001468  0.60030202  0.38754351    -0.43700
C557        C  0.32641991  0.71293608  0.33969348    -0.00200
C558        C  0.35143747  0.74871510  0.33329900    -0.12000
C559        C  0.35508154  0.78374017  0.34943666     0.02100
C560        C  0.33380560  0.78330554  0.37270855    -0.00200
C561        C  0.30671586  0.74903347  0.37854160    -0.12000
C562        C  0.30215176  0.71433693  0.36215454     0.02000
H563        H  0.36950896  0.74886735  0.31597958     0.14900
H564        H  0.29046295  0.74858331  0.39648653     0.14900
C565        C  0.27368116  0.68024263  0.36965456     0.36600
C566        C  0.38383749  0.81802344  0.34257606     0.36500
N567        N  0.25058020  0.65322125  0.37577679    -0.43800
N568        N  0.40692156  0.84534314  0.33691669    -0.43700
C569        C  0.95934370  0.93940866  0.99255256    -0.00200
C570        C  0.97562233  0.97598819  0.00450908    -0.12000
C571        C  0.00834830  0.00028058  0.99361183     0.02100
C572        C  0.02523019  0.98823414  0.97010668    -0.00200
C573        C  0.00858476  0.95192817  0.95804415    -0.12000
C574        C  0.97588040  0.92770692  0.96889642     0.02000
H575        H  0.96412997  0.98460984  0.02298694     0.14900
H576        H  0.02033488  0.94298485  0.93967938     0.14900
C577        C  0.95953597  0.89140537  0.95507699     0.36600
C578        C  0.02499821  0.03639347  0.00745307     0.36500
N579        N  0.94654880  0.86235269  0.94395034    -0.43800
N580        N  0.03837073  0.06528645  0.01856818    -0.43700
C581        C  0.92553926  0.07801157  0.84446665    -0.00200
C582        C  0.93344738  0.03781958  0.85461831    -0.12000
C583        C  0.96537287  0.03295916  0.87282288     0.02100
C584        C  0.98872049  0.06895669  0.88136269    -0.00200
C585        C  0.97864068  0.10920292  0.87236306    -0.12000
C586        C  0.94790146  0.11402795  0.85391255     0.02000
H587        H  0.91595723  0.01022567  0.84769319     0.14900
H588        H  0.99642823  0.13695679  0.87887761     0.14900
C589        C  0.94091420  0.15659567  0.84477742     0.36600
C590        C  0.97335407  0.99107453  0.88259595     0.36500
N591        N  0.93647590  0.19101283  0.83773060    -0.43800
N592        N  0.97968398  0.95751666  0.89049298    -0.43700
C593        C  0.96052288  0.44577628  0.97106436    -0.00200
C594        C  0.97253143  0.43306045  0.99521629    -0.12000
C595        C  0.00439225  0.45497025  0.00852023     0.02100
C596        C  0.02587036  0.48991980  0.99739521    -0.00200
C597        C  0.01324307  0.50326469  0.97347255    -0.12000
C598        C  0.98095168  0.48166922  0.96027720     0.02000
H599        H  0.95682378  0.40584218  0.00380351     0.14900
H600        H  0.02881385  0.53064501  0.96498196     0.14900
C601        C  0.97093475  0.49606076  0.93532222     0.36600
C602        C  0.01245201  0.44236731  0.03407506     0.36500
N603        N  0.96298085  0.50769848  0.91533533    -0.43800
N604        N  0.01861081  0.43252457  0.05461950    -0.43700
C605        C  0.83352613  0.21418090  0.83954467    -0.00200
C606        C  0.84199762  0.25593238  0.83155493    -0.12000
C607        C  0.84488465  0.28957292  0.84883349     0.02100
C608        C  0.84017406  0.28135658  0.87471452    -0.00200
C609        C  0.82940256  0.24003840  0.88249340    -0.12000
C610        C  0.82580306  0.20662268  0.86528097     0.02000
H611        H  0.84739443  0.26212593  0.81182151     0.14900
H612        H  0.82575223  0.23341221  0.90232442     0.14900
C613        C  0.81737949  0.16447401  0.87496430     0.36600
C614        C  0.85557670  0.33147406  0.83960205     0.36500
N615        N  0.81059652  0.13078644  0.88280583    -0.43800
N616        N  0.86396045  0.36505416  0.83211690    -0.43700
C617        C  0.05697476  0.36405485  0.84102628    -0.00200
C618        C  0.06647673  0.35459537  0.86610978    -0.12000
C619        C  0.03498711  0.35688919  0.88477442     0.02100
C620        C  0.99326933  0.36948501  0.87843340    -0.00200
C621        C  0.98490479  0.38192724  0.85367083    -0.12000
C622        C  0.01603587  0.37898564  0.83503256     0.02000
H623        H  0.09781375  0.34294002  0.87089224     0.14900
H624        H  0.95325207  0.39223896  0.84852397     0.14900
C625        C  0.00480882  0.39059132  0.80973763     0.36600
C626        C  0.04633452  0.34601126  0.91014510     0.36500
N627        N  0.99575099  0.39983877  0.78947678    -0.43800
N628        N  0.05552756  0.33736414  0.93048106    -0.43700
C629        C  0.14506900  0.21248370  0.83540726    -0.00200
C630        C  0.16078965  0.22041021  0.85966035    -0.12000
C631        C  0.15990159  0.18874941  0.87792541     0.02100
C632        C  0.14316322  0.14811404  0.87204340    -0.00200
C633        C  0.13089723  0.13901618  0.84726352    -0.12000
C634        C  0.13169520  0.17083262  0.82893216     0.02000
H635        H  0.17225258  0.25198274  0.86473302     0.14900
H636        H  0.11829002  0.10771355  0.84254196     0.14900
C637        C  0.11887911  0.15987985  0.80371573     0.36600
C638        C  0.17571385  0.19893813  0.90268393     0.36500
N639        N  0.10886862  0.15111037  0.78345752    -0.43800
N640        N  0.18848942  0.20704316  0.92249705    -0.43700
C641        C  0.53018357  0.98243319  0.49615983    -0.00200
C642        C  0.50490844  0.00232366  0.47794825    -0.12000
C643        C  0.47272131  0.98029412  0.46505991     0.02100
C644        C  0.46521692  0.93662234  0.46991140    -0.00200
C645        C  0.49125378  0.91633925  0.48764144    -0.12000
C646        C  0.52334277  0.93859066  0.50070737     0.02000
H647        H  0.50951876  0.03589039  0.47401756     0.14900
H648        H  0.48662818  0.88273794  0.49143682     0.14900
C649        C  0.54783460  0.91549756  0.51894155     0.36600
C650        C  0.44813465  0.00396838  0.44711353     0.36500
N651        N  0.56734996  0.89677535  0.53351635    -0.43800
N652        N  0.42855872  0.02320839  0.43280781    -0.43700
C653        C  0.26366419  0.17811080  0.72020582    -0.00200
C654        C  0.28243773  0.21717101  0.72760635    -0.12000
C655        C  0.25848722  0.24928309  0.73883245     0.02100
C656        C  0.21456199  0.24273356  0.74305589    -0.00200
C657        C  0.19567890  0.20379751  0.73548597    -0.12000
C658        C  0.21964957  0.17167642  0.72421011     0.02000
H659        H  0.31601358  0.22322662  0.72409137     0.14900
H660        H  0.16209940  0.19779136  0.73901076     0.14900
C661        C  0.19845133  0.13207737  0.71779909     0.36600
C662        C  0.27968191  0.28897179  0.74505521     0.36500
N663        N  0.18136770  0.10034414  0.71274975    -0.43800
N664        N  0.29676526  0.32077834  0.74993782    -0.43700
C665        C  0.49422324  0.05068815  0.59114386    -0.00200
C666        C  0.45306668  0.06005842  0.58270548    -0.12000
C667        C  0.41888383  0.06270001  0.59952520     0.02100
C668        C  0.42584101  0.05625134  0.62538805    -0.00200
C669        C  0.46650911  0.04448096  0.63355149    -0.12000
C670        C  0.50058283  0.04167501  0.61679422     0.02000
H671        H  0.44787815  0.06670853  0.56301812     0.14900
H672        H  0.47224880  0.03978382  0.65339363     0.14900
C673        C  0.54233609  0.03329319  0.62692047     0.36600
C674        C  0.37807123  0.07558651  0.58993696     0.36500
N675        N  0.57573326  0.02671736  0.63512825    -0.43800
N676        N  0.34548608  0.08592212  0.58204864    -0.43700
C677        C  0.45427303  0.44117872  0.49551954    -0.00200
C678        C  0.46704159  0.48108245  0.50503814    -0.12000
C679        C  0.49776024  0.50612631  0.49275031     0.02100
C680        C  0.51656760  0.49139475  0.47028293    -0.00200
C681        C  0.50317753  0.45188310  0.46051534    -0.12000
C682        C  0.47229750  0.42697039  0.47270201     0.02000
H683        H  0.45403112  0.49230669  0.52265202     0.14900
H684        H  0.51621868  0.44066382  0.44290495     0.14900
C685        C  0.45934032  0.38739521  0.46096014     0.36600
C686        C  0.51011973  0.54613267  0.50417086     0.36500
N687        N  0.44901238  0.35572233  0.45150003    -0.43800
N688        N  0.51990787  0.57818653  0.51337031    -0.43700
C689        C  0.33653345  0.20991633  0.62986855    -0.00200
C690        C  0.35927348  0.24698509  0.63672243    -0.12000
C691        C  0.36209022  0.28194211  0.62059907     0.02100
C692        C  0.34245792  0.28009067  0.59685518    -0.00200
C693        C  0.31781977  0.24422505  0.59045277    -0.12000
C694        C  0.31396060  0.20961782  0.60680497     0.02000
H695        H  0.37592789  0.24837976  0.65451654     0.14900
H696        H  0.30274553  0.24265001  0.57216903     0.14900
C697        C  0.28788737  0.17395419  0.59872906     0.36600
C698        C  0.38786219  0.31801564  0.62825593     0.36500
N699        N  0.26660953  0.14570481  0.59216478    -0.43800
N700        N  0.40844645  0.34673427  0.63480765    -0.43700
C701        C  0.76135542  0.18031975  0.74654665    -0.00200
C702        C  0.72519574  0.19642663  0.75860579    -0.12000
C703        C  0.70215558  0.22974842  0.74809745     0.02100
C704        C  0.71537465  0.24761619  0.72504153    -0.00200
C705        C  0.75147043  0.23140578  0.71303877    -0.12000
C706        C  0.77412903  0.19787400  0.72334099     0.02000
H707        H  0.71574282  0.18402991  0.77674434     0.14900
H708        H  0.76109980  0.24374911  0.69491428     0.14900
C709        C  0.80968945  0.18147831  0.70925592     0.36600
C710        C  0.66583708  0.24555680  0.76171598     0.36500
N711        N  0.83812493  0.16839183  0.69792234    -0.43800
N712        N  0.63676446  0.25807523  0.77271342    -0.43700
C713        C  0.56201258  0.36055309  0.62310500    -0.00200
C714        C  0.56765544  0.34381422  0.59894586    -0.12000
C715        C  0.53515778  0.34640685  0.58095965     0.02100
C716        C  0.49641003  0.36650106  0.58712188    -0.00200
C717        C  0.49298918  0.38686145  0.61055355    -0.12000
C718        C  0.52488584  0.38330718  0.62862981     0.02000
H719        H  0.59637850  0.32641531  0.59461212     0.14900
H720        H  0.46429838  0.40386660  0.61537669     0.14900
C721        C  0.51822287  0.40202612  0.65305946     0.36600
C722        C  0.54253202  0.32815514  0.55651120     0.36500
N723        N  0.51297260  0.41685687  0.67267580    -0.43800
N724        N  0.54865796  0.31369809  0.53688720    -0.43700
C725        C  0.64842295  0.20920666  0.63310866    -0.00200
C726        C  0.66094853  0.21728476  0.60832120    -0.12000
C727        C  0.65868933  0.18549145  0.59011237     0.02100
C728        C  0.64427892  0.14435891  0.59665604    -0.00200
C729        C  0.63532564  0.13515238  0.62186287    -0.12000
C730        C  0.63704602  0.16733494  0.64012784     0.02000
H731        H  0.67045464  0.24920001  0.60279066     0.14900
H732        H  0.62441168  0.10352691  0.62701925     0.14900
C733        C  0.62704508  0.15664009  0.66576498     0.36600
C734        C  0.66992762  0.19634925  0.56464571     0.36500
N735        N  0.61925336  0.14793934  0.68632816    -0.43800
N736        N  0.67880570  0.20517733  0.54425461    -0.43700
C737        C  0.78253864  0.08034741  0.47341411    -0.00200
C738        C  0.78355127  0.08397681  0.49960108    -0.12000
C739        C  0.74578582  0.08176832  0.51364028     0.02100
C740        C  0.70611953  0.07647315  0.50140789    -0.00200
C741        C  0.70488791  0.07549071  0.47517318    -0.12000
C742        C  0.74266213  0.07703716  0.46114191     0.02000
H743        H  0.81395019  0.08701232  0.50915442     0.14900
H744        H  0.67447382  0.07216401  0.46566168     0.14900
C745        C  0.73969747  0.07569224  0.43413907     0.36600
C746        C  0.74837653  0.08566206  0.54057090     0.36500
N747        N  0.73743886  0.07475535  0.41250042    -0.43800
N748        N  0.75029400  0.08899122  0.56214399    -0.43700
C749        C  0.13207042  0.00209345  0.25000610    -0.00200
C750        C  0.17075549  0.98069848  0.24652595    -0.12000
C751        C  0.17272559  0.94286436  0.23262364     0.02100
C752        C  0.13532372  0.92502786  0.22198446    -0.00200
C753        C  0.09646511  0.94573729  0.22578214    -0.12000
C754        C  0.09455241  0.98408111  0.23937398     0.02000
H755        H  0.19987457  0.99371054  0.25458653     0.14900
H756        H  0.06755345  0.93233519  0.21767289     0.14900
C757        C  0.05349748  0.00359973  0.24236366     0.36600
C758        C  0.21341208  0.92223027  0.23031654     0.36500
N759        N  0.02047111  0.01912362  0.24457243    -0.43800
N760        N  0.24598264  0.90564706  0.22851537    -0.43700
C761        C  0.99948392  0.05862766  0.38761906    -0.00200
C762        C  0.99267476  0.03773569  0.36455955    -0.12000
C763        C  0.02313021  0.03951149  0.34553116     0.02100
C764        C  0.06176385  0.06165471  0.34954198    -0.00200
C765        C  0.07050418  0.07903730  0.37327029    -0.12000
C766        C  0.03964119  0.07804150  0.39225985     0.02000
H767        H  0.96240381  0.02200647  0.36070790     0.14900
H768        H  0.10022161  0.09629433  0.37637545     0.14900
C769        C  0.04966262  0.09839693  0.41585758     0.36600
C770        C  0.01335025  0.01971051  0.32172313     0.36500
N771        N  0.05780795  0.11484219  0.43472301    -0.43800
N772        N  0.00535186  0.00372071  0.30270996    -0.43700
C773        C  0.20029572  0.36279835  0.47256602    -0.00200
C774        C  0.22827864  0.39826536  0.47289501    -0.12000
C775        C  0.26625338  0.39813706  0.48682527     0.02100
C776        C  0.27744718  0.36190147  0.50071716    -0.00200
C777        C  0.25016642  0.32623161  0.50027059    -0.12000
C778        C  0.21180771  0.32641367  0.48660882     0.02000
H779        H  0.22056414  0.42640308  0.46221676     0.14900
H780        H  0.25859191  0.29827463  0.51094294     0.14900
C781        C  0.18553035  0.28840703  0.48713577     0.36600
C782        C  0.29416731  0.43500930  0.48582767     0.36500
N783        N  0.16451745  0.25789371  0.48764884    -0.43800
N784        N  0.31678551  0.46434669  0.48498919    -0.43700
C785        C  0.13921022  0.28573746  0.37437522    -0.00200
C786        C  0.12121605  0.29130290  0.35055127    -0.12000
C787        C  0.12106152  0.25820292  0.33282620     0.02100
C788        C  0.13982208  0.21883267  0.33879709    -0.00200
C789        C  0.16037382  0.21462212  0.36208277    -0.12000
C790        C  0.15980216  0.24738834  0.37986911     0.02000
H791        H  0.10477671  0.32057510  0.34636172     0.14900
H792        H  0.17537696  0.18488770  0.36693354     0.14900
C793        C  0.17956059  0.24059909  0.40394367     0.36600
C794        C  0.10100702  0.26546236  0.30890128     0.36500
N795        N  0.19541372  0.23528627  0.42323638    -0.43800
N796        N  0.08489864  0.27136621  0.28974264    -0.43700
C797        C  0.83775557  0.42107992  0.24900353    -0.00200
C798        C  0.87568757  0.44484796  0.24703629    -0.12000
C799        C  0.87756770  0.48242109  0.23299478     0.02100
C800        C  0.84090417  0.49666031  0.22013296    -0.00200
C801        C  0.80306845  0.47229189  0.22189474    -0.12000
C802        C  0.80119139  0.43501059  0.23625883     0.02000
H803        H  0.90397581  0.43414079  0.25671590     0.14900
H804        H  0.77474421  0.48237793  0.21204121     0.14900
C805        C  0.76197234  0.41055048  0.23665442     0.36600
C806        C  0.91798882  0.50478906  0.23167522     0.36500
N807        N  0.73054491  0.39090423  0.23677317    -0.43800
N808        N  0.95043369  0.52264700  0.23073614    -0.43700
C809        C  0.92132282  0.36256534  0.34467125    -0.00200
C810        C  0.96053577  0.38027029  0.33727033    -0.12000
C811        C  0.99441352  0.38430895  0.35415060     0.02100
C812        C  0.98942723  0.37017877  0.37916394    -0.00200
C813        C  0.94949739  0.35428240  0.38686680    -0.12000
C814        C  0.91550761  0.35047438  0.36992448     0.02000
H815        H  0.96537434  0.38908914  0.31782652     0.14900
H816        H  0.94516181  0.34361573  0.40601345     0.14900
C817        C  0.87635885  0.33066462  0.37845604     0.36600
C818        C  0.03469336  0.40001477  0.34458053     0.36500
N819        N  0.84508057  0.31465901  0.38533077    -0.43800
N820        N  0.06688879  0.41255191  0.33679013    -0.43700
C821        C  0.84567627  0.20872345  0.33814957    -0.00200
C822        C  0.88661141  0.20096066  0.34722016    -0.12000
C823        C  0.89308820  0.17158325  0.36621181     0.02100
C824        C  0.85816540  0.14838069  0.37617399    -0.00200
C825        C  0.81733585  0.15415117  0.36616497    -0.12000
C826        C  0.81075186  0.18464257  0.34740263     0.02000
H827        H  0.91355669  0.21938441  0.34022246     0.14900
H828        H  0.79054919  0.13606176  0.37358964     0.14900
C829        C  0.76824584  0.19036453  0.33777499     0.36600
C830        C  0.93611225  0.16643778  0.37528781     0.36500
N831        N  0.73419763  0.19488669  0.32998168    -0.43800
N832        N  0.97073855  0.16302755  0.38237984    -0.43700
C833        C  0.20631613  0.06681958  0.96669987    -0.00200
C834        C  0.20318191  0.07002245  0.99285043    -0.12000
C835        C  0.23969160  0.07002163  0.00791028     0.02100
C836        C  0.28038428  0.06754787  0.99676284    -0.00200
C837        C  0.28369190  0.06564683  0.97057771    -0.12000
C838        C  0.24706000  0.06490372  0.95550246     0.02000
H839        H  0.17203510  0.07200005  0.00157098     0.14900
H840        H  0.31490858  0.06399544  0.96192460     0.14900
C841        C  0.25218372  0.06375039  0.92862429     0.36600
C842        C  0.23462680  0.07397421  0.03471433     0.36500
N843        N  0.25634550  0.06300771  0.90708277    -0.43800
N844        N  0.23049059  0.07734953  0.05617306    -0.43700
C845        C  0.62412429  0.91860247  0.24479832    -0.00200
C846        C  0.63246334  0.95752096  0.25710128    -0.12000
C847        C  0.63300876  0.99613248  0.24400857     0.02100
C848        C  0.62652475  0.99629253  0.21790206    -0.00200
C849        C  0.61720446  0.95771927  0.20558336    -0.12000
C850        C  0.61510076  0.91914741  0.21883864     0.02000
H851        H  0.63890437  0.95776711  0.27706803     0.14900
H852        H  0.61161556  0.95775144  0.18552735     0.14900
C853        C  0.60517503  0.88058302  0.20516906     0.36600
C854        C  0.64189521  0.03505434  0.25758847     0.36500
N855        N  0.59692755  0.84973343  0.19420723    -0.43800
N856        N  0.64890322  0.06630967  0.26843194    -0.43700
C857        C  0.76148548  0.23967937  0.24773085    -0.00200
C858        C  0.78004248  0.20140004  0.23982322    -0.12000
C859        C  0.75576053  0.16929636  0.22829748     0.02100
C860        C  0.71192583  0.17542774  0.22407745    -0.00200
C861        C  0.69331535  0.21361103  0.23214996    -0.12000
C862        C  0.71747735  0.24549711  0.24394539     0.02000
H863        H  0.81357064  0.19588696  0.24331164     0.14900
H864        H  0.65980540  0.21922787  0.22866379     0.14900
C865        C  0.69623941  0.28399890  0.25138171     0.36600
C866        C  0.77646097  0.13001245  0.22182617     0.36500
N867        N  0.67875222  0.31457875  0.25735712    -0.43800
N868        N  0.79308475  0.09848116  0.21678233    -0.43700
C869        C  0.56086276  0.05848641  0.12064253    -0.00200
C870        C  0.52407976  0.03545558  0.12699137    -0.12000
C871        C  0.49027535  0.03148326  0.11016055     0.02100
C872        C  0.49238253  0.05268800  0.08676426    -0.00200
C873        C  0.53075528  0.07290510  0.07974803    -0.12000
C874        C  0.56520109  0.07533125  0.09634199     0.02000
H875        H  0.52107504  0.02205175  0.14563268     0.14900
H876        H  0.53349832  0.08790274  0.06154169     0.14900
C877        C  0.60341666  0.09774334  0.08860333     0.36600
C878        C  0.45355710  0.00686907  0.11812145     0.36500
N879        N  0.63411790  0.11537516  0.08221795    -0.43800
N880        N  0.42454012  0.98659332  0.12455145    -0.43700
C881        C  0.33988565  0.42402658  0.21981272    -0.00200
C882        C  0.34042244  0.42115601  0.24604081    -0.12000
C883        C  0.33871613  0.45787322  0.26105202     0.02100
C884        C  0.33732090  0.49848739  0.24981868    -0.00200
C885        C  0.33837251  0.50142621  0.22361393    -0.12000
C886        C  0.33918639  0.46471388  0.20860077     0.02000
H887        H  0.34126344  0.39012585  0.25482495     0.14900
H888        H  0.33779275  0.53247895  0.21483931     0.14900
C889        C  0.34048648  0.46967506  0.18171675     0.36600
C890        C  0.33975148  0.45315282  0.28794795     0.36500
N891        N  0.34162716  0.47355623  0.16017173    -0.43800
N892        N  0.34073271  0.44946453  0.30950568    -0.43700
C893        C  0.25522130  0.24488547  0.21871658    -0.00200
C894        C  0.27155268  0.20447080  0.22412057    -0.12000
C895        C  0.24713365  0.17380932  0.23661431     0.02100
C896        C  0.20524833  0.18326371  0.24404710    -0.00200
C897        C  0.18839262  0.22330571  0.23811487    -0.12000
C898        C  0.21301732  0.25414141  0.22562503     0.02000
H899        H  0.30361016  0.19650135  0.21829891     0.14900
H900        H  0.15644018  0.23121314  0.24414475     0.14900
C901        C  0.19511506  0.29557316  0.22146198     0.36600
C902        C  0.26563138  0.13268809  0.24106620     0.36500
N903        N  0.18079513  0.32885375  0.21828881    -0.43800
N904        N  0.28047052  0.09974446  0.24459191    -0.43700
C905        C  0.33448965  0.21249053  0.12788406    -0.00200
C906        C  0.34488830  0.17159045  0.13618344    -0.12000
C907        C  0.34746911  0.13740895  0.11926776     0.02100
C908        C  0.34041868  0.14421458  0.09344003    -0.00200
C909        C  0.32804452  0.18463206  0.08542647    -0.12000
C910        C  0.32487869  0.21854736  0.10225469     0.02000
H911        H  0.35168278  0.16646816  0.15586128     0.14900
H912        H  0.32272237  0.19024924  0.06562812     0.14900
C913        C  0.31475204  0.25982705  0.09221826     0.36600
C914        C  0.35984993  0.09652385  0.12878286     0.36500
N915        N  0.30663601  0.29285147  0.08413643    -0.43800
N916        N  0.36948700  0.06384387  0.13671307    -0.43700
C917        C  0.78182886  0.36125803  0.97098264    -0.00200
C918        C  0.76640086  0.39938501  0.98096189    -0.12000
C919        C  0.72924276  0.40008681  0.99556367     0.02100
C920        C  0.70597044  0.36193032  0.00021815    -0.00200
C921        C  0.72104223  0.32383277  0.98974332    -0.12000
C922        C  0.75863997  0.32318338  0.97537844     0.02000
H923        H  0.78368650  0.42887727  0.97744555     0.14900
H924        H  0.70360503  0.29434020  0.99293200     0.14900
C925        C  0.77163839  0.28340536  0.96437002     0.36600
C926        C  0.71532625  0.44081873  0.00484897     0.36500
N927        N  0.78192709  0.25157307  0.95541951    -0.43800
N928        N  0.70432078  0.47351043  0.01227918    -0.43700
C929        C  0.64557725  0.28163908  0.09749247    -0.00200
C930        C  0.62900728  0.28697088  0.12168952    -0.12000
C931        C  0.63009734  0.25371501  0.13912956     0.02100
C932        C  0.64812910  0.21426585  0.13233867    -0.00200
C933        C  0.66840131  0.21075548  0.10892846    -0.12000
C934        C  0.66693099  0.24383626  0.09149589     0.02000
H935        H  0.61269261  0.31612551  0.12643680     0.14900
H936        H  0.68369158  0.18132696  0.10367563     0.14900
C937        C  0.68662593  0.23801250  0.06728386     0.36600
C938        C  0.61231744  0.26098196  0.16370713     0.36500
N939        N  0.70252108  0.23360299  0.04789790    -0.43800
N940        N  0.59826256  0.26694534  0.18343945    -0.43700
C941        C  0.49137876  0.36562852  0.09023333    -0.00200
C942        C  0.49914647  0.37626955  0.11539783    -0.12000
C943        C  0.46643710  0.37513680  0.13311529     0.02100
C944        C  0.42471326  0.36326708  0.12577988    -0.00200
C945        C  0.41614560  0.35601438  0.10025338    -0.12000
C946        C  0.44911812  0.35708502  0.08245737     0.02000
H947        H  0.53132304  0.38401022  0.12148978     0.14900
H948        H  0.38413704  0.34721715  0.09437594     0.14900
C949        C  0.43869324  0.35006883  0.05641755     0.36600
C950        C  0.47679247  0.38556804  0.15881202     0.36500
N951        N  0.43018027  0.34483786  0.03552557    -0.43800
N952        N  0.48518295  0.39394803  0.17937447    -0.43700
C953        C  0.70772864  0.84704361  0.97099804    -0.00200
C954        C  0.70758108  0.83943113  0.99689817    -0.12000
C955        C  0.74588727  0.83865936  0.01052866     0.02100
C956        C  0.78541956  0.84350440  0.99806195    -0.00200
C957        C  0.78572174  0.84902102  0.97207188    -0.12000
C958        C  0.74747095  0.85178422  0.95861192     0.02000
H959        H  0.67745279  0.83592983  0.00668150     0.14900
H960        H  0.81590123  0.85342729  0.96243977     0.14900
C961        C  0.75016801  0.86065436  0.93217945     0.36600
C962        C  0.74388114  0.83345589  0.03737673     0.36500
N963        N  0.75273934  0.86862127  0.91109953    -0.43800
N964        N  0.74238331  0.82955792  0.05891188    -0.43700
C965        C  0.52772620  0.93687393  0.97612205    -0.00200
C966        C  0.51468569  0.97476410  0.96477415    -0.12000
C967        C  0.48060298  0.99805085  0.97438525     0.02100
C968        C  0.45902992  0.98397801  0.99619836    -0.00200
C969        C  0.47208167  0.94616942  0.00758760    -0.12000
C970        C  0.50591674  0.92267860  0.99787873     0.02000
H971        H  0.52996330  0.98542123  0.94763716     0.14900
H972        H  0.45664139  0.93545320  0.02466554     0.14900
C973        C  0.51754987  0.88436259  0.01093104     0.36600
C974        C  0.46770106  0.03549035  0.96089573     0.36500
N975        N  0.52654419  0.85360545  0.02142160    -0.43800
N976        N  0.45736858  0.06540114  0.95000684    -0.43700
C977        C  0.34699844  0.92334158  0.75071695    -0.00200
C978        C  0.35799240  0.92204048  0.72519152    -0.12000
C979        C  0.35769788  0.95892307  0.71046082     0.02100
C980        C  0.34706334  0.99838837  0.72128700    -0.00200
C981        C  0.33730445  0.00015298  0.74690396    -0.12000
C982        C  0.33683735  0.96311685  0.76160354     0.02000
H983        H  0.36624359  0.89195172  0.71658740     0.14900
H984        H  0.32937055  0.03045424  0.75535985     0.14900
C985        C  0.32709438  0.96717552  0.78793357     0.36600
C986        C  0.36937506  0.95569521  0.68435340     0.36500
N987        N  0.31932172  0.97056835  0.80903787    -0.43800
N988        N  0.37888431  0.95313972  0.66345685    -0.43700
C989        C  0.42868112  0.86146095  0.84594397    -0.00200
C990        C  0.41845909  0.85149991  0.87092674    -0.12000
C991        C  0.44950425  0.85406130  0.88985639     0.02100
C992        C  0.49152286  0.86698487  0.88384468    -0.00200
C993        C  0.50049878  0.88047373  0.85929255    -0.12000
C994        C  0.46971290  0.87770677  0.84042904     0.02000
H995        H  0.38688317  0.83935553  0.87543979     0.14900
H996        H  0.53237354  0.89138419  0.85444285     0.14900
C997        C  0.48136858  0.89093915  0.81542653     0.36600
C998        C  0.43746358  0.84340436  0.91519461     0.36500
N999        N  0.49067544  0.90152966  0.79539361    -0.43800
N1000       N  0.42786816  0.83515745  0.93556122    -0.43700
C1001       C  0.28546113  0.56403818  0.97042935    -0.00200
C1002       C  0.26636122  0.60320568  0.97570460    -0.12000
C1003       C  0.22805155  0.60522792  0.98930301     0.02100
C1004       C  0.20875904  0.56752601  0.99862785    -0.00200
C1005       C  0.22838758  0.52847051  0.99360193    -0.12000
C1006       C  0.26591931  0.52635813  0.97946661     0.02000
H1007       H  0.28093817  0.63229746  0.96871052     0.14900
H1008       H  0.21410932  0.49921568  0.00057280     0.14900
C1009       C  0.28428625  0.48507885  0.97513379     0.36600
C1010       C  0.20976231  0.64646858  0.99360273     0.36500
N1011       N  0.29892367  0.45199030  0.97163341    -0.43800
N1012       N  0.19513363  0.67964815  0.99676445    -0.43700
C1013       C  0.52625562  0.43611236  0.99808103    -0.00200
C1014       C  0.50768307  0.47131248  0.00983366    -0.12000
C1015       C  0.47496916  0.49374390  0.99825381     0.02100
C1016       C  0.46064135  0.48150417  0.97414710    -0.00200
C1017       C  0.47892383  0.44608310  0.96247051    -0.12000
C1018       C  0.51138108  0.42338292  0.97414934     0.02000
H1019       H  0.51767509  0.48048241  0.02856888     0.14900
H1020       H  0.46892561  0.43695172  0.94373013     0.14900
C1021       C  0.52951321  0.38791762  0.96078888     0.36600
C1022       C  0.45573467  0.52825906  0.01193367     0.36500
N1023       N  0.54391161  0.35947901  0.95004606    -0.43800
N1024       N  0.44021574  0.55576329  0.02296815    -0.43700
C1025       C  0.35407451  0.70522173  0.83607903    -0.00200
C1026       C  0.31721236  0.68251095  0.84352643    -0.12000
C1027       C  0.31964967  0.64970221  0.86129186     0.02100
C1028       C  0.35928970  0.64023866  0.87208941    -0.00200
C1029       C  0.39606664  0.66198838  0.86399339    -0.12000
C1030       C  0.39388107  0.69416961  0.84622267     0.02000
H1031       H  0.28650942  0.69089362  0.83578096     0.14900
H1032       H  0.42671743  0.65461192  0.87224310     0.14900
C1033       C  0.43251662  0.71764338  0.84036267     0.36600
C1034       C  0.28118202  0.62783028  0.86904175     0.36500
N1035       N  0.46328700  0.73673971  0.83573958    -0.43800
N1036       N  0.25033350  0.61024335  0.87523917    -0.43700
C1037       C  0.63877724  0.50130507  0.74760635    -0.00200
C1038       C  0.62696011  0.50205424  0.72222279    -0.12000
C1039       C  0.62544091  0.46453606  0.70796670     0.02100
C1040       C  0.63443447  0.42525414  0.71934171    -0.00200
C1041       C  0.64510635  0.42419742  0.74478645    -0.12000
C1042       C  0.64785929  0.46177582  0.75890264     0.02000
H1043       H  0.61973691  0.53211264  0.71337563     0.14900
H1044       H  0.65234224  0.39401002  0.75349261     0.14900
C1045       C  0.65922264  0.45862586  0.78504207     0.36600
C1046       C  0.61444976  0.46702746  0.68173878     0.36500
N1047       N  0.66847367  0.45609229  0.80596740    -0.43800
N1048       N  0.60574402  0.46905696  0.66071036    -0.43700
C1049       C  0.56385007  0.55733700  0.84415235    -0.00200
C1050       C  0.57222877  0.57241238  0.86846926    -0.12000
C1051       C  0.54079582  0.57043133  0.88711469     0.02100
C1052       C  0.50038836  0.55230199  0.88154006    -0.00200
C1053       C  0.49379206  0.53368685  0.85779869    -0.12000
C1054       C  0.52488193  0.53638029  0.83913813     0.02000
H1055       H  0.60220225  0.58869408  0.87239827     0.14900
H1056       H  0.46334418  0.51889424  0.85323755     0.14900
C1057       C  0.51557889  0.51862906  0.81470796     0.36600
C1058       C  0.55067112  0.58817957  0.91144532     0.36500
N1059       N  0.50823407  0.50444771  0.79511683    -0.43800
N1060       N  0.55872643  0.60246625  0.93091713    -0.43700
C1061       C  0.63331460  0.71287450  0.83755779    -0.00200
C1062       C  0.66806453  0.74053956  0.84180125    -0.12000
C1063       C  0.66613323  0.77217283  0.86036957     0.02100
C1064       C  0.62939400  0.77518496  0.87544465    -0.00200
C1065       C  0.59457728  0.74768022  0.87077284    -0.12000
C1066       C  0.59616597  0.71682677  0.85207017     0.02000
H1067       H  0.69675354  0.73726468  0.83065506     0.14900
H1068       H  0.56583611  0.75007822  0.88198330     0.14900
C1069       C  0.56023662  0.68792957  0.84925468     0.36600
C1070       C  0.70265048  0.79974391  0.86388740     0.36500
N1071       N  0.53153088  0.66471082  0.84711665    -0.43800
N1072       N  0.73251699  0.82139289  0.86599785    -0.43700
C1073       C  0.77370443  0.56668127  0.49779071    -0.00200
C1074       C  0.75212852  0.60503118  0.49434235    -0.12000
C1075       C  0.71409816  0.60634748  0.48049712     0.02100
C1076       C  0.69753948  0.56876655  0.46920897    -0.00200
C1077       C  0.71968679  0.53057384  0.47250482    -0.12000
C1078       C  0.75710133  0.52917837  0.48672610     0.02000
H1079       H  0.76461159  0.63394108  0.50290497     0.14900
H1080       H  0.70766479  0.50142244  0.46399950     0.14900
C1081       C  0.77866838  0.48905138  0.48892054     0.36600
C1082       C  0.69335598  0.64681240  0.47800391     0.36500
N1083       N  0.79600090  0.45693233  0.49063498    -0.43800
N1084       N  0.67675708  0.67931229  0.47623056    -0.43700
C1085       C  0.01815880  0.44339208  0.47166076    -0.00200
C1086       C  0.98353109  0.42233409  0.48332652    -0.12000
C1087       C  0.95090037  0.44475655  0.49514057     0.02100
C1088       C  0.95247131  0.48963376  0.49582300    -0.00200
C1089       C  0.98660511  0.51074824  0.48373764    -0.12000
C1090       C  0.01911757  0.48832241  0.47177375     0.02000
H1091       H  0.98127644  0.38789545  0.48288268     0.14900
H1092       H  0.98871048  0.54519748  0.48411774     0.14900
C1093       C  0.05315813  0.51260753  0.46023805     0.36600
C1094       C  0.91603173  0.42058362  0.50591642     0.36500
N1095       N  0.08026655  0.53237809  0.45103413    -0.43800
N1096       N  0.88814727  0.40100683  0.51444939    -0.43700
C1097       C  0.13656281  0.49983107  0.71614199    -0.00200
C1098       C  0.12192501  0.46187518  0.70497816    -0.12000
C1099       C  0.12050034  0.42363787  0.71855350     0.02100
C1100       C  0.13456346  0.42295206  0.74374645    -0.00200
C1101       C  0.14945425  0.46118251  0.75469874    -0.12000
C1102       C  0.15040808  0.49932037  0.74120059     0.02000
H1103       H  0.11168879  0.46211943  0.68556684     0.14900
H1104       H  0.16051376  0.46135041  0.77394993     0.14900
C1105       C  0.16741234  0.53724772  0.75308086     0.36600
C1106       C  0.10620803  0.38546572  0.70581728     0.36500
N1107       N  0.18125329  0.56765935  0.76246389    -0.43800
N1108       N  0.09480044  0.35491125  0.69553329    -0.43700
C1109       C  0.22715428  0.67433836  0.71931341    -0.00200
C1110       C  0.21344283  0.68762511  0.74310527    -0.12000
C1111       C  0.23551510  0.71915012  0.75655829     0.02100
C1112       C  0.27248169  0.73846272  0.74623068    -0.00200
C1113       C  0.28687838  0.72444870  0.72268066    -0.12000
C1114       C  0.26456830  0.69295958  0.70914162     0.02000
H1115       H  0.18482146  0.67361200  0.75118155     0.14900
H1116       H  0.31548294  0.73852165  0.71463943     0.14900
C1117       C  0.27963711  0.68225188  0.68437332     0.36600
C1118       C  0.22003703  0.72971544  0.78127184     0.36500
N1119       N  0.29176956  0.67388707  0.66450198    -0.43800
N1120       N  0.20753042  0.73798911  0.80107461    -0.43700
C1121       C  0.05416052  0.56606874  0.62308550    -0.00200
C1122       C  0.01373276  0.55331365  0.63168053    -0.12000
C1123       C  0.97906198  0.55005286  0.61532499     0.02100
C1124       C  0.98438785  0.56036261  0.58973609    -0.00200
C1125       C  0.02516723  0.57140216  0.58090369    -0.12000
C1126       C  0.06006893  0.57391973  0.59726180     0.02000
H1127       H  0.00885160  0.54741736  0.65150094     0.14900
H1128       H  0.02962960  0.57882556  0.56123703     0.14900
C1129       C  0.10077316  0.58745905  0.58729812     0.36600
C1130       C  0.93793976  0.53877835  0.62573905     0.36500
N1131       N  0.13335742  0.59822841  0.57920259    -0.43800
N1132       N  0.90506683  0.52964010  0.63411751    -0.43700
C1133       C  0.84492449  0.93240245  0.71492063    -0.00200
C1134       C  0.80824237  0.95734271  0.71725110    -0.12000
C1135       C  0.80871924  0.99511404  0.73126616     0.02100
C1136       C  0.84640601  0.00884933  0.74343096    -0.00200
C1137       C  0.88367549  0.98533838  0.74019539    -0.12000
C1138       C  0.88330343  0.94743242  0.72611435     0.02000
H1139       H  0.77877227  0.94709169  0.70834824     0.14900
H1140       H  0.91292179  0.99608440  0.74916769     0.14900
C1141       C  0.92303665  0.92540940  0.72298032     0.36600
C1142       C  0.77040319  0.02005283  0.73225279     0.36500
N1143       N  0.95496259  0.90791400  0.72038855    -0.43800
N1144       N  0.73989306  0.04030768  0.73290038    -0.43700
C1145       C  0.75916990  0.75287561  0.72098987    -0.00200
C1146       C  0.72208913  0.73603240  0.70975466    -0.12000
C1147       C  0.69864176  0.70319441  0.72112255     0.02100
C1148       C  0.71198529  0.68681036  0.74441453    -0.00200
C1149       C  0.74875453  0.70401791  0.75577214    -0.12000
C1150       C  0.77226580  0.73669275  0.74438649     0.02000
H1151       H  0.71229893  0.74727526  0.69147431     0.14900
H1152       H  0.75875027  0.69257409  0.77397125     0.14900
C1153       C  0.80927894  0.75334098  0.75740380     0.36600
C1154       C  0.66219865  0.68577274  0.70790485     0.36500
N1155       N  0.83895269  0.76658543  0.76784881    -0.43800
N1156       N  0.63310820  0.67174994  0.69723771    -0.43700
C1157       C  0.82862204  0.71101874  0.63071236    -0.00200
C1158       C  0.80753706  0.71385979  0.60752549    -0.12000
C1159       C  0.80938104  0.68086957  0.58996783     0.02100
C1160       C  0.83105389  0.64329666  0.59583299    -0.00200
C1161       C  0.84844292  0.63850323  0.61984055    -0.12000
C1162       C  0.84780396  0.67205983  0.63722369     0.02000
H1163       H  0.79162763  0.74295305  0.60238438     0.14900
H1164       H  0.86542716  0.60971785  0.62435136     0.14900
C1165       C  0.86790783  0.66574158  0.66123263     0.36600
C1166       C  0.79057410  0.68708902  0.56557419     0.36500
N1167       N  0.88409503  0.66049779  0.68043879    -0.43800
N1168       N  0.77564409  0.69218793  0.54600815    -0.43700
C1169       C  0.20631380  0.86680897  0.50112174    -0.00200
C1170       C  0.22471773  0.90548124  0.49322440    -0.12000
C1171       C  0.26112693  0.90629738  0.47792888     0.02100
C1172       C  0.28056239  0.86777802  0.47075438    -0.00200
C1173       C  0.26257698  0.82918919  0.47910183    -0.12000
C1174       C  0.22565838  0.82835393  0.49388955     0.02000
H1175       H  0.21021459  0.93521796  0.49872229     0.14900
H1176       H  0.27711634  0.79938955  0.47376391     0.14900
C1177       C  0.20913797  0.78759274  0.50201474     0.36600
C1178       C  0.27835839  0.94713487  0.47045513     0.36500
N1179       N  0.19591239  0.75491614  0.50851265    -0.43800
N1180       N  0.29201631  0.97992723  0.46446630    -0.43700
C1181       C  0.02600225  0.94526885  0.50148160    -0.00200
C1182       C  0.98560839  0.92737298  0.49612432    -0.12000
C1183       C  0.95326437  0.95167848  0.48554744     0.02100
C1184       C  0.96124072  0.99471689  0.47984667    -0.00200
C1185       C  0.00147178  0.01273006  0.48554368    -0.12000
C1186       C  0.03367381  0.98855945  0.49629628     0.02000
H1187       H  0.97878196  0.89446818  0.50088561     0.14900
H1188       H  0.00840462  0.04564199  0.48084669     0.14900
C1189       C  0.07457918  0.00864833  0.50099108     0.36600
C1190       C  0.91185216  0.93217773  0.48173799     0.36500
N1191       N  0.10734808  0.02475824  0.50474086    -0.43800
N1192       N  0.87858549  0.91657991  0.47889209    -0.43700
C1193       C  0.14547126  0.78792304  0.59790372    -0.00200
C1194       C  0.16986557  0.75285617  0.59105189    -0.12000
C1195       C  0.17350296  0.71786244  0.60697427     0.02100
C1196       C  0.15111186  0.71709628  0.63010670    -0.00200
C1197       C  0.12892181  0.75361255  0.63751889    -0.12000
C1198       C  0.12614442  0.78890717  0.62172781     0.02000
H1199       H  0.18459257  0.75204833  0.57265744     0.14900
H1200       H  0.11234214  0.75413199  0.65534303     0.14900
C1201       C  0.10025460  0.82414765  0.62957076     0.36600
C1202       C  0.19886491  0.68277890  0.59826800     0.36500
N1203       N  0.07945128  0.85222530  0.63604413    -0.43800
N1204       N  0.21944944  0.65490569  0.59121690    -0.43700
C1205       C  0.98968823  0.87368174  0.58879646    -0.00200
C1206       C  0.95436654  0.84841939  0.58165145    -0.12000
C1207       C  0.91833378  0.84512123  0.59695032     0.02100
C1208       C  0.91763477  0.86659094  0.62011756    -0.00200
C1209       C  0.95117151  0.89427390  0.62649119    -0.12000
C1210       C  0.98661990  0.89890818  0.61081797     0.02000
H1211       H  0.95528318  0.83008156  0.56441785     0.14900
H1212       H  0.95039029  0.91102482  0.64429720     0.14900
C1213       C  0.01956930  0.92867189  0.61851022     0.36600
C1214       C  0.88383530  0.81720089  0.58925338     0.36500
N1215       N  0.04573498  0.95276337  0.62472038    -0.43800
N1216       N  0.85622629  0.79500663  0.58281460    -0.43700
loop_ 
_geom_bond_atom_site_label_1 
_geom_bond_atom_site_label_2 
_geom_bond_distance 
_geom_bond_site_symmetry_2 
_ccdc_geom_bond_type 
O1           Cu9   2.021       .  S
O1           C11   1.279       .  A
O2           Cu9   2.008       .  S
O2           C12   1.279       .  A
O3           Cu9   1.991       .  S
O3           C13   1.275       .  A
O4           Cu9   2.015       .  S
O4           C14   1.278       .  A
O5          Cu10   2.015       .  S
O5           C14   1.279       .  A
O6          Cu10   2.011       .  S
O6           C13   1.280       .  A
O7          Cu10   1.980       .  S
O7           C12   1.274       .  A
O8          Cu10   1.983       .  S
O8           C11   1.274       .  A
Cu9         Cu10   2.372       .  S
C11        C1193   1.469       .  S
C12        C1181   1.476       .  S
C13        C1205   1.486   1_455  S
C14        C1169   1.485       .  S
O15         Cu23   1.981       .  S
O15          C25   1.274       .  A
O16         Cu23   1.982       .  S
O16          C26   1.274       .  A
O17         Cu23   2.021       .  S
O17          C27   1.280       .  A
O18         Cu23   2.020       .  S
O18          C28   1.279       .  A
O19         Cu24   2.016       .  S
O19          C28   1.279       .  A
O20         Cu24   1.996       .  S
O20          C27   1.277       .  A
O21         Cu24   2.013       .  S
O21          C26   1.280       .  A
O22         Cu24   2.017       .  S
O22          C25   1.278       .  A
Cu23        Cu24   2.371       .  S
C25        C1208   1.464       .  S
C26        C1145   1.480       .  S
C27        C1157   1.487       .  S
C28        C1133   1.494       .  S
O29         Cu37   1.986       .  S
O29          C39   1.274       .  A
O30         Cu37   2.011       .  S
O30          C40   1.276       .  A
O31         Cu37   2.025       .  S
O31          C41   1.280       .  A
O32         Cu37   2.030       .  S
O32          C42   1.281       .  A
O33         Cu38   1.978       .  S
O33          C42   1.274       .  A
O34         Cu38   1.984       .  S
O34          C41   1.275       .  A
O35         Cu38   2.022       .  S
O35          C40   1.279       .  A
O36         Cu38   2.022       .  S
O36          C39   1.281       .  A
Cu37        Cu38   2.371       .  S
C39        C1196   1.488       .  S
C40        C1097   1.477       .  S
C41        C1121   1.478       .  S
C42        C1109   1.484       .  S
O43         Cu51   2.022       .  S
O43          C53   1.279       .  A
O44         Cu51   2.024       .  S
O44          C54   1.281       .  A
O45         Cu51   1.984       .  S
O45          C55   1.275       .  A
O46         Cu51   1.979       .  S
O46          C56   1.274       .  A
O47         Cu52   2.027       .  S
O47          C56   1.280       .  A
O48         Cu52   2.022       .  S
O48          C55   1.281       .  A
O49         Cu52   1.985       .  S
O49          C54   1.274       .  A
O50         Cu52   2.004       .  S
O50          C53   1.277       .  A
Cu51        Cu52   2.372       .  S
C53        C1073   1.481       .  S
C54        C1124   1.478       .  S
C55        C1088   1.489       .  S
C56        C1160   1.471       .  S
O57         Cu65   2.012       .  S
O57          C67   1.278       .  A
O58         Cu65   2.007       .  S
O58          C68   1.279       .  A
O59         Cu65   1.992       .  S
O59          C69   1.275       .  A
O60         Cu65   2.010       .  S
O60          C70   1.278       .  A
O61         Cu66   2.008       .  S
O61          C70   1.278       .  A
O62         Cu66   2.003       .  S
O62          C69   1.278       .  A
O63         Cu66   1.992       .  S
O63          C68   1.275       .  A
O64         Cu66   1.988       .  S
O64          C67   1.276       .  A
Cu65        Cu66   2.374       .  S
C67        C1049   1.471       .  S
C68        C1148   1.480       .  S
C69        C1061   1.465       .  S
C70        C1037   1.482       .  S
O71         Cu79   1.985       .  S
O71          C81   1.275       .  A
O72         Cu79   2.002       .  S
O72          C82   1.276       .  A
O73         Cu79   2.031       .  S
O73          C83   1.280       .  A
O74         Cu79   2.021       .  S
O74          C84   1.281       .  A
O75         Cu80   1.976       .  S
O75          C84   1.273       .  A
O76         Cu80   1.970       .  S
O76          C83   1.273       .  A
O77         Cu80   2.030       .  S
O77          C82   1.281       .  A
O78         Cu80   2.026       .  S
O78          C81   1.281       .  A
Cu79        Cu80   2.371       .  S
C81        C1052   1.485       .  S
C82        C1001   1.486       .  S
C83        C1028   1.470       .  S
C84        C1016   1.478       .  S
O85         Cu93   2.015       .  S
O85          C95   1.280       .  A
O86         Cu93   2.021       .  S
O86          C96   1.279       .  A
O87         Cu93   2.025       .  S
O87          C97   1.280       .  A
O88         Cu93   2.002       .  S
O88          C98   1.276       .  A
O89         Cu94   2.006       .  S
O89          C98   1.279       .  A
O90         Cu94   2.018       .  S
O90          C97   1.279       .  A
O91         Cu94   1.994       .  S
O91          C96   1.277       .  A
O92         Cu94   1.994       .  S
O92          C95   1.276       .  A
Cu93        Cu94   2.370       .  S
C95        C1112   1.486       .  S
C96         C989   1.480       .  S
C97         C977   1.491       .  S
C98        C1025   1.475       .  S
O99        Cu107   1.967       .  S
O99         C109   1.273       .  A
O100       Cu107   1.968       .  S
O100        C110   1.271       .  A
O101       Cu107   2.035       .  S
O101        C111   1.282       .  A
O102       Cu107   2.038       .  S
O102        C112   1.282       .  A
O103       Cu108   2.004       .  S
O103        C112   1.276       .  A
O104       Cu108   1.983       .  S
O104        C111   1.274       .  A
O105       Cu108   2.035       .  S
O105        C110   1.284       .  A
O106       Cu108   2.033       .  S
O106        C109   1.280       .  A
Cu107      Cu108   2.370       .  S
C109       C1064   1.474       .  S
C110        C965   1.486       .  S
C111        C992   1.484       .  S
C112        C953   1.490       .  S
O113       Cu121   2.027       .  S
O113        C123   1.280       .  A
O114       Cu121   2.021       .  S
O114        C124   1.281       .  A
O115       Cu121   1.981       .  S
O115        C125   1.274       .  A
O116       Cu121   2.006       .  S
O116        C126   1.277       .  A
O117       Cu122   2.037       .  S
O117        C126   1.282       .  A
O118       Cu122   2.037       .  S
O118        C125   1.282       .  A
O119       Cu122   1.978       .  S
O119        C124   1.273       .  A
O120       Cu122   1.985       .  S
O120        C123   1.274       .  A
Cu121      Cu122   2.371       .  S
C123        C929   1.473       .  S
C124       C1013   1.479   1_554  S
C125        C941   1.479       .  S
C126        C920   1.495       .  S
O127       Cu135   1.984       .  S
O127        C137   1.274       .  A
O128       Cu135   2.004       .  S
O128        C138   1.276       .  A
O129       Cu135   2.028       .  S
O129        C139   1.280       .  A
O130       Cu135   2.030       .  S
O130        C140   1.281       .  A
O131       Cu136   1.970       .  S
O131        C140   1.273       .  A
O132       Cu136   1.979       .  S
O132        C139   1.274       .  A
O133       Cu136   2.032       .  S
O133        C138   1.281       .  A
O134       Cu136   2.030       .  S
O134        C137   1.281       .  A
Cu135      Cu136   2.371       .  S
C137        C905   1.481       .  S
C138        C881   1.484       .  S
C139        C944   1.478       .  S
C140        C893   1.478       .  S
O141       Cu149   1.976       .  S
O141        C151   1.274       .  A
O142       Cu149   1.981       .  S
O142        C152   1.275       .  A
O143       Cu149   2.021       .  S
O143        C153   1.279       .  A
O144       Cu149   2.020       .  S
O144        C154   1.280       .  A
O145       Cu150   2.004       .  S
O145        C154   1.277       .  A
O146       Cu150   2.021       .  S
O146        C153   1.279       .  A
O147       Cu150   2.006       .  S
O147        C152   1.276       .  A
O148       Cu150   2.011       .  S
O148        C151   1.279       .  A
Cu149      Cu150   2.373       .  S
C151        C860   1.479       .  S
C152        C869   1.463       .  S
C153        C848   1.482   1_545  S
C154        C932   1.487       .  S
O155       Cu163   2.022       .  S
O155        C165   1.279       .  A
O156       Cu163   2.019       .  S
O156        C166   1.281       .  A
O157       Cu163   1.974       .  S
O157        C167   1.272       .  A
O158       Cu163   1.984       .  S
O158        C168   1.275       .  A
O159       Cu164   2.030       .  S
O159        C168   1.280       .  A
O160       Cu164   2.028   1_565  S
O160        C167   1.283   1_565  A
O161       Cu164   1.973       .  S
O161        C166   1.272       .  A
O162       Cu164   2.000       .  S
O162        C165   1.276       .  A
Cu163      Cu164   2.371       .  S
C165        C836   1.476   1_554  S
C166        C872   1.480       .  S
C167        C968   1.484   1_544  S
C168        C908   1.480       .  S
O169       Cu177   2.023       .  S
O169        C179   1.280       .  A
O170       Cu177   2.005       .  S
O170        C180   1.278       .  A
O171       Cu177   2.003       .  S
O171        C181   1.276       .  A
O172       Cu177   2.021       .  S
O172        C182   1.279       .  A
O173       Cu178   2.009       .  S
O173        C182   1.277       .  A
O174       Cu178   2.002       .  S
O174        C181   1.278       .  A
O175       Cu178   1.988       .  S
O175        C180   1.276       .  A
O176       Cu178   1.983       .  S
O176        C179   1.275       .  A
Cu177      Cu178   2.374       .  S
C179        C809   1.476       .  S
C180        C857   1.478       .  S
C181        C821   1.472       .  S
C182        C797   1.479       .  S
O183       Cu191   1.982       .  S
O183        C193   1.274       .  A
O184       Cu191   1.981       .  S
O184        C194   1.275       .  A
O185       Cu191   2.025       .  S
O185        C195   1.281       .  A
O186       Cu191   2.029       .  S
O186        C196   1.280       .  A
O187       Cu192   2.022       .  S
O187        C196   1.280       .  A
O188       Cu192   1.989       .  S
O188        C195   1.275       .  A
O189       Cu192   2.026       .  S
O189        C194   1.281       .  A
O190       Cu192   2.028       .  S
O190        C193   1.280       .  A
Cu191      Cu192   2.368       .  S
C193        C785   1.473       .  S
C194       C1085   1.491       .  S
C195        C812   1.483   1_455  S
C196        C773   1.502       .  S
O197       Cu205   2.028       .  S
O197        C207   1.281       .  A
O198       Cu205   2.032       .  S
O198        C208   1.281       .  A
O199       Cu205   1.986       .  S
O199        C209   1.275       .  A
O200       Cu205   1.990       .  S
O200        C210   1.275       .  A
O201       Cu206   2.008       .  S
O201        C210   1.279       .  A
O202       Cu206   2.013       .  S
O202        C209   1.278       .  A
O203       Cu206   2.009       .  S
O203        C208   1.278       .  A
O204       Cu206   1.993       .  S
O204        C207   1.276       .  A
Cu205      Cu206   2.371       .  S
C207        C788   1.487       .  S
C208        C749   1.495       .  S
C209        C764   1.469       .  S
C210        C896   1.477       .  S
O211       Cu219   1.980       .  S
O211        C221   1.274       .  A
O212       Cu219   1.994       .  S
O212        C222   1.275       .  A
O213       Cu219   2.026       .  S
O213        C223   1.279       .  A
O214       Cu219   2.024       .  S
O214        C224   1.281       .  A
O215       Cu220   1.969       .  S
O215        C224   1.273       .  A
O216       Cu220   1.976       .  S
O216        C223   1.274       .  A
O217       Cu220   2.032       .  S
O217        C222   1.281       .  A
O218       Cu220   2.025       .  S
O218        C221   1.281       .  A
Cu219      Cu220   2.372       .  S
C221        C761   1.484       .  S
C222        C737   1.481       .  S
C223        C824   1.470       .  S
C224       C1184   1.478   1_545  S
O225       Cu233   2.022       .  S
O225        C235   1.279       .  A
O226       Cu233   2.025       .  S
O226        C236   1.281       .  A
O227       Cu233   1.976       .  S
O227        C237   1.273       .  A
O228       Cu233   1.987       .  S
O228        C238   1.275       .  A
O229       Cu234   2.016       .  S
O229        C238   1.278       .  A
O230       Cu234   2.013       .  S
O230        C237   1.281       .  A
O231       Cu234   1.976       .  S
O231        C236   1.274       .  A
O232       Cu234   1.997       .  S
O232        C235   1.275       .  A
Cu233      Cu234   2.376       .  S
C235       C1040   1.472       .  S
C236        C725   1.475       .  S
C237        C704   1.475       .  S
C238        C713   1.470       .  S
O239       Cu247   1.987       .  S
O239        C249   1.274       .  A
O240       Cu247   1.989       .  S
O240        C250   1.275       .  A
O241       Cu247   2.029       .  S
O241        C251   1.281       .  A
O242       Cu247   2.032       .  S
O242        C252   1.280       .  A
O243       Cu248   2.015       .  S
O243        C252   1.278       .  A
O244       Cu248   1.991       .  S
O244        C251   1.276       .  A
O245       Cu248   2.019       .  S
O245        C250   1.281       .  A
O246       Cu248   2.031       .  S
O246        C249   1.280       .  A
Cu247      Cu248   2.371       .  S
C249        C692   1.475       .  S
C250        C677   1.487       .  S
C251        C716   1.488       .  S
C252        C776   1.485       .  S
O253       Cu261   2.026       .  S
O253        C263   1.280       .  A
O254       Cu261   2.030       .  S
O254        C264   1.282       .  A
O255       Cu261   1.995       .  S
O255        C265   1.275       .  A
O256       Cu261   2.015       .  S
O256        C266   1.277       .  A
O257       Cu262   2.029       .  S
O257        C266   1.280       .  A
O258       Cu262   2.025       .  S
O258        C265   1.282       .  A
O259       Cu262   1.977       .  S
O259        C264   1.274       .  A
O260       Cu262   1.984       .  S
O260        C263   1.275       .  A
Cu261      Cu262   2.369       .  S
C263        C668   1.478       .  S
C264        C653   1.486       .  S
C265        C689   1.491       .  S
C266        C980   1.482   1_545  S
O267       Cu275   1.989       .  S
O267        C277   1.275       .  A
O268       Cu275   2.008       .  S
O268        C278   1.277       .  A
O269       Cu275   2.021       .  S
O269        C279   1.279       .  A
O270       Cu275   2.031   1_565  S
O270        C280   1.281   1_565  A
O271       Cu276   1.972       .  S
O271        C280   1.274       .  A
O272       Cu276   1.976       .  S
O272        C279   1.274       .  A
O273       Cu276   2.021       .  S
O273        C278   1.279       .  A
O274       Cu276   2.020       .  S
O274        C277   1.280       .  A
Cu275      Cu276   2.372       .  S
C277        C665   1.478       .  S
C278        C740   1.479       .  S
C279        C728   1.471       .  S
C280        C641   1.491   1_545  S
O281       Cu289   2.001       .  S
O281        C291   1.277       .  A
O282       Cu289   1.977       .  S
O282        C292   1.273       .  A
O283       Cu289   2.029       .  S
O283        C293   1.282       .  A
O284       Cu289   2.030       .  S
O284        C294   1.281       .  A
O285       Cu290   1.987       .  S
O285        C294   1.275       .  A
O286       Cu290   1.981       .  S
O286        C293   1.274       .  A
O287       Cu290   2.026       .  S
O287        C292   1.281       .  A
O288       Cu290   2.034       .  S
O288        C291   1.281       .  A
Cu289      Cu290   2.370       .  S
C291       C1100   1.491       .  S
C292        C629   1.479       .  S
C293        C656   1.486       .  S
C294        C617   1.480       .  S
O295       Cu303   2.023       .  S
O295        C305   1.280       .  A
O296       Cu303   2.018       .  S
O296        C306   1.280       .  A
O297       Cu303   1.994       .  S
O297        C307   1.276       .  A
O298       Cu303   2.015       .  S
O298        C308   1.278       .  A
O299       Cu304   2.030       .  S
O299        C308   1.280       .  A
O300       Cu304   2.030       .  S
O300        C307   1.281       .  A
O301       Cu304   1.989       .  S
O301        C306   1.275       .  A
O302       Cu304   1.983       .  S
O302        C305   1.275       .  A
Cu303      Cu304   2.371       .  S
C305        C608   1.478       .  S
C306        C593   1.481       .  S
C307        C620   1.486       .  S
C308        C917   1.487       .  S
O309       Cu317   1.983       .  S
O309        C319   1.273       .  A
O310       Cu317   2.003       .  S
O310        C320   1.276       .  A
O311       Cu317   2.032       .  S
O311        C321   1.281       .  A
O312       Cu317   2.021       .  S
O312        C322   1.281       .  A
O313       Cu318   1.961       .  S
O313        C322   1.271       .  A
O314       Cu318   1.965       .  S
O314        C321   1.272       .  A
O315       Cu318   2.033       .  S
O315        C320   1.280       .  A
O316       Cu318   2.028       .  S
O316        C319   1.282       .  A
Cu317      Cu318   2.372       .  S
C319        C605   1.480       .  S
C320       C1136   1.482       .  S
C321        C581   1.470       .  S
C322        C701   1.475       .  S
O323       Cu331   2.004       .  S
O323        C333   1.277       .  A
O324       Cu331   2.001       .  S
O324        C334   1.278       .  A
O325       Cu331   1.980       .  S
O325        C335   1.274       .  A
O326       Cu331   1.986       .  S
O326        C336   1.275       .  A
O327       Cu332   2.016       .  S
O327        C336   1.279       .  A
O328       Cu332   2.010   1_565  S
O328        C335   1.280   1_565  A
O329       Cu332   1.996       .  S
O329        C334   1.275       .  A
O330       Cu332   2.015       .  S
O330        C333   1.278       .  A
Cu331      Cu332   2.373       .  S
C333        C833   1.478       .  S
C334        C584   1.470   1_455  S
C335        C572   1.478   1_545  S
C336        C632   1.474       .  S
O337       Cu345   1.957       .  S
O337        C347   1.271       .  A
O338       Cu345   1.965       .  S
O338        C348   1.272       .  A
O339       Cu345   2.022       .  S
O339        C349   1.279       .  A
O340       Cu345   2.023       .  S
O340        C350   1.282       .  A
O341       Cu346   1.995       .  S
O341        C350   1.275       .  A
O342       Cu346   2.015       .  S
O342        C349   1.278       .  A
O343       Cu346   2.025       .  S
O343        C348   1.280       .  A
O344       Cu346   2.031       .  S
O344        C347   1.282       .  A
Cu345      Cu346   2.369       .  S
C347        C533   1.482       .  S
C348        C548   1.470       .  S
C349        C884   1.483       .  S
C350        C557   1.491       .  S
O351       Cu359   2.022       .  S
O351        C361   1.279       .  A
O352       Cu359   2.018       .  S
O352        C362   1.280       .  A
O353       Cu359   1.992       .  S
O353        C363   1.275       .  A
O354       Cu359   1.994       .  S
O354        C364   1.276       .  A
O355       Cu360   2.022       .  S
O355        C364   1.279       .  A
O356       Cu360   2.017       .  S
O356        C363   1.281       .  A
O357       Cu360   1.981       .  S
O357        C362   1.274       .  A
O358       Cu360   2.002       .  S
O358        C361   1.278       .  A
Cu359      Cu360   2.371       .  S
C361       C1076   1.490       .  S
C362        C545   1.475       .  S
C363        C680   1.486       .  S
C364        C521   1.476       .  S
O365       Cu373   2.009       .  S
O365        C375   1.279       .  A
O366       Cu373   2.022       .  S
O366        C376   1.279       .  A
O367       Cu373   2.020       .  S
O367        C377   1.279       .  A
O368       Cu373   1.999       .  S
O368        C378   1.276       .  A
O369       Cu374   2.007       .  S
O369        C378   1.279       .  A
O370       Cu374   2.012       .  S
O370        C377   1.279       .  A
O371       Cu374   1.989       .  S
O371        C376   1.275       .  A
O372       Cu374   1.996       .  S
O372        C375   1.276       .  A
Cu373      Cu374   2.370       .  S
C375        C644   1.491       .  S
C376        C560   1.472       .  S
C377       C1172   1.487       .  S
C378        C512   1.476       .  S
O379       Cu387   2.003       .  S
O379        C389   1.277       .  A
O380       Cu387   1.989       .  S
O380        C390   1.275       .  A
O381       Cu387   2.025       .  S
O381        C391   1.281       .  A
O382       Cu387   2.024       .  S
O382        C392   1.279       .  A
O383       Cu388   1.981       .  S
O383        C392   1.274       .  A
O384       Cu388   1.973       .  S
O384        C391   1.274       .  A
O385       Cu388   2.029       .  S
O385        C390   1.281       .  A
O386       Cu388   2.039       .  S
O386        C389   1.282       .  A
Cu387      Cu388   2.370       .  S
C389        C845   1.491       .  S
C390        C524   1.486       .  S
C391        C497   1.488       .  S
C392        C509   1.470       .  S
O393       Cu401   2.023       .  S
O393        C403   1.279       .  A
O394       Cu401   2.010       .  S
O394        C404   1.281       .  A
O395       Cu401   1.986       .  S
O395        C405   1.275       .  A
O396       Cu401   2.009       .  S
O396        C406   1.277       .  A
O397       Cu402   2.028       .  S
O397        C406   1.280       .  A
O398       Cu402   2.023       .  S
O398        C405   1.281       .  A
O399       Cu402   1.986       .  S
O399        C404   1.274       .  A
O400       Cu402   1.982       .  S
O400        C403   1.275       .  A
Cu401      Cu402   2.371       .  S
C403        C473   1.473       .  S
C404        C536   1.482       .  S
C405        C488   1.485       .  S
C406        C752   1.487       .  S
O407       Cu415   1.970       .  S
O407        C417   1.272       .  A
O408       Cu415   1.966       .  S
O408        C418   1.272       .  A
O409       Cu415   2.039       .  S
O409        C419   1.283       .  A
O410       Cu415   2.041       .  S
O410        C420   1.282       .  A
O411       Cu416   1.993       .  S
O411        C420   1.274       .  A
O412       Cu416   1.976       .  S
O412        C419   1.272       .  A
O413       Cu416   2.026       .  S
O413        C418   1.282       .  A
O414       Cu416   2.025       .  S
O414        C417   1.280       .  A
Cu415      Cu416   2.372       .  S
C417        C461   1.466       .  S
C418        C569   1.477   1_554  S
C419        C476   1.489   1_655  S
C420        C956   1.481   1_554  S
O421       Cu429   1.988       .  S
O421        C431   1.275       .  A
O422       Cu429   1.986       .  S
O422        C432   1.274       .  A
O423       Cu429   2.031       .  S
O423        C433   1.281       .  A
O424       Cu429   2.030       .  S
O424        C434   1.282       .  A
O425       Cu430   1.982       .  S
O425        C434   1.274       .  A
O426       Cu430   2.007       .  S
O426        C433   1.278       .  A
O427       Cu430   2.020       .  S
O427        C432   1.279       .  A
O428       Cu430   2.014       .  S
O428        C431   1.280       .  A
Cu429      Cu430   2.372       .  S
C431        C596   1.480   1_554  S
C432        C485   1.469       .  S
C433       C1004   1.491   1_554  S
C434        C449   1.484   1_455  S
O435       Cu443   2.011       .  S
O435        C445   1.279       .  A
O436       Cu443   2.021       .  S
O436        C446   1.279       .  A
O437       Cu443   2.022       .  S
O437        C447   1.280       .  A
O438       Cu443   1.996       .  S
O438        C448   1.275       .  A
O439       Cu444   1.999       .  S
O439        C448   1.278       .  A
O440       Cu444   2.008       .  S
O440        C447   1.278       .  A
O441       Cu444   1.984       .  S
O441        C446   1.275       .  A
O442       Cu444   1.987       .  S
O442        C445   1.276       .  A
Cu443      Cu444   2.370       .  S
C445        C500   1.489       .  S
C446        C452   1.473       .  S
C447        C800   1.492       .  S
C448        C464   1.471       .  S
C449        C450   1.408       .  A
C449        C454   1.414       .  A
C450        C451   1.397       .  A
C450        H455   1.085   1_655  S
C451        C452   1.408       .  A
C451        C458   1.444       .  S
C452        C453   1.404       .  A
C453        C454   1.403       .  A
C453        H456   1.085       .  S
C454        C457   1.444       .  S
C457        N459   1.157       .  T
C458        N460   1.157       .  T
C461        C462   1.400       .  A
C461        C466   1.412       .  A
C462        C463   1.404       .  A
C462        H467   1.084       .  S
C463        C464   1.415       .  A
C463        C470   1.443       .  S
C464        C465   1.398       .  A
C465        C466   1.390       .  A
C465        H468   1.085       .  S
C466        C469   1.445       .  S
C469        N471   1.157       .  T
C470        N472   1.157       .  T
C473        C474   1.397       .  A
C473        C478   1.412       .  A
C474        C475   1.396   1_455  A
C474        H479   1.086       .  S
C475        C476   1.421   1_655  A
C475        C482   1.445       .  S
C476        C477   1.406       .  A
C477        C478   1.404       .  A
C477        H480   1.084       .  S
C478        C481   1.444       .  S
C481        N483   1.157       .  T
C482        N484   1.157       .  T
C485        C486   1.402       .  A
C485        C490   1.406       .  A
C486        C487   1.402       .  A
C486        H491   1.085       .  S
C487        C488   1.415       .  A
C487        C494   1.444       .  S
C488        C489   1.408       .  A
C489        C490   1.397       .  A
C489        H492   1.084       .  S
C490        C493   1.443       .  S
C493        N495   1.157       .  T
C494        N496   1.157       .  T
C497        C498   1.408       .  A
C497        C502   1.414       .  A
C498        C499   1.398       .  A
C498        H503   1.085       .  S
C499        C500   1.415       .  A
C499        C506   1.445       .  S
C500        C501   1.409       .  A
C501        C502   1.400       .  A
C501        H504   1.084       .  S
C502        C505   1.444       .  S
C505        N507   1.157       .  T
C506        N508   1.157       .  T
C509        C510   1.401       .  A
C509        C514   1.412       .  A
C510        C511   1.404       .  A
C510        H515   1.085       .  S
C511        C512   1.416       .  A
C511        C518   1.444       .  S
C512        C513   1.400       .  A
C513        C514   1.393       .  A
C513        H516   1.085       .  S
C514        C517   1.446       .  S
C517        N519   1.157       .  T
C518        N520   1.157       .  T
C521        C522   1.404       .  A
C521        C526   1.408       .  A
C522        C523   1.404       .  A
C522        H527   1.084       .  S
C523        C524   1.414       .  A
C523        C530   1.443       .  S
C524        C525   1.407       .  A
C525        C526   1.398       .  A
C525        H528   1.085       .  S
C526        C529   1.444       .  S
C529        N531   1.157       .  T
C530        N532   1.157       .  T
C533        C534   1.405       .  A
C533        C538   1.417       .  A
C534        C535   1.402       .  A
C534        H539   1.085       .  S
C535        C536   1.416       .  A
C535        C542   1.444       .  S
C536        C537   1.402       .  A
C537        C538   1.394       .  A
C537        H540   1.085       .  S
C538        C541   1.446       .  S
C541        N543   1.157       .  T
C542        N544   1.157       .  T
C545        C546   1.404       .  A
C545        C550   1.413       .  A
C546        C547   1.400       .  A
C546        H551   1.085       .  S
C547        C548   1.411       .  A
C547        C554   1.444       .  S
C548        C549   1.402       .  A
C549        C550   1.395       .  A
C549        H552   1.085       .  S
C550        C553   1.445       .  S
C553        N555   1.157       .  T
C554        N556   1.157       .  T
C557        C558   1.406       .  A
C557        C562   1.421       .  A
C558        C559   1.399       .  A
C558        H563   1.084       .  S
C559        C560   1.410       .  A
C559        C566   1.445       .  S
C560        C561   1.400       .  A
C561        C562   1.402       .  A
C561        H564   1.085       .  S
C562        C565   1.444       .  S
C565        N567   1.157       .  T
C566        N568   1.157       .  T
C569        C570   1.404   1_556  A
C569        C574   1.414       .  A
C570        C571   1.400   1_664  A
C570        H575   1.085       .  S
C571        C572   1.414   1_545  A
C571        C578   1.444   1_556  S
C572        C573   1.403       .  A
C573        C574   1.397   1_455  A
C573        H576   1.085       .  S
C574        C577   1.445       .  S
C577        N579   1.157       .  T
C578        N580   1.157       .  T
C581        C582   1.402       .  A
C581        C586   1.416       .  A
C582        C583   1.406       .  A
C582        H587   1.084       .  S
C583        C584   1.414       .  A
C583        C590   1.443   1_545  S
C584        C585   1.395       .  A
C585        C586   1.389       .  A
C585        H588   1.086       .  S
C586        C589   1.446       .  S
C589        N591   1.157       .  T
C590        N592   1.157       .  T
C593        C594   1.404       .  A
C593        C598   1.415       .  A
C594        C595   1.399   1_656  A
C594        H599   1.085   1_556  S
C595        C596   1.414   1_554  A
C595        C602   1.445       .  S
C596        C597   1.404       .  A
C597        C598   1.401   1_455  A
C597        H600   1.085       .  S
C598        C601   1.444       .  S
C601        N603   1.157       .  T
C602        N604   1.157       .  T
C605        C606   1.404       .  A
C605        C610   1.415       .  A
C606        C607   1.403       .  A
C606        H611   1.085       .  S
C607        C608   1.414       .  A
C607        C614   1.444       .  S
C608        C609   1.402       .  A
C609        C610   1.397       .  A
C609        H612   1.085       .  S
C610        C613   1.445       .  S
C613        N615   1.157       .  T
C614        N616   1.157       .  T
C617        C618   1.405       .  A
C617        C622   1.411       .  A
C618        C619   1.405       .  A
C618        H623   1.085       .  S
C619        C620   1.414   1_455  A
C619        C626   1.444       .  S
C620        C621   1.405       .  A
C621        C622   1.398   1_655  A
C621        H624   1.085       .  S
C622        C625   1.445       .  S
C625        N627   1.157   1_455  T
C626        N628   1.157       .  T
C629        C630   1.406       .  A
C629        C634   1.412       .  A
C630        C631   1.396       .  A
C630        H635   1.085       .  S
C631        C632   1.409       .  A
C631        C638   1.445       .  S
C632        C633   1.405       .  A
C633        C634   1.402       .  A
C633        H636   1.085       .  S
C634        C637   1.444       .  S
C637        N639   1.157       .  T
C638        N640   1.157       .  T
C641        C642   1.408   1_565  A
C641        C646   1.414       .  A
C642        C643   1.397   1_545  A
C642        H647   1.085       .  S
C643        C644   1.415       .  A
C643        C650   1.445   1_565  S
C644        C645   1.410       .  A
C645        C646   1.403       .  A
C645        H648   1.084       .  S
C646        C649   1.444       .  S
C649        N651   1.157       .  T
C650        N652   1.157       .  T
C653        C654   1.410       .  A
C653        C658   1.410       .  A
C654        C655   1.400       .  A
C654        H659   1.085       .  S
C655        C656   1.409       .  A
C655        C662   1.444       .  S
C656        C657   1.411       .  A
C657        C658   1.401       .  A
C657        H660   1.085       .  S
C658        C661   1.444       .  S
C661        N663   1.157       .  T
C662        N664   1.157       .  T
C665        C666   1.403       .  A
C665        C670   1.414       .  A
C666        C667   1.402       .  A
C666        H671   1.085       .  S
C667        C668   1.413       .  A
C667        C674   1.443       .  S
C668        C669   1.403       .  A
C669        C670   1.397       .  A
C669        H672   1.085       .  S
C670        C673   1.445       .  S
C673        N675   1.157       .  T
C674        N676   1.157       .  T
C677        C678   1.405       .  A
C677        C682   1.416       .  A
C678        C679   1.401       .  A
C678        H683   1.085       .  S
C679        C680   1.416       .  A
C679        C686   1.444       .  S
C680        C681   1.405       .  A
C681        C682   1.400       .  A
C681        H684   1.085       .  S
C682        C685   1.445       .  S
C685        N687   1.157       .  T
C686        N688   1.157       .  T
C689        C690   1.406       .  A
C689        C694   1.420       .  A
C690        C691   1.400       .  A
C690        H695   1.085       .  S
C691        C692   1.410       .  A
C691        C698   1.442       .  S
C692        C693   1.400       .  A
C693        C694   1.401       .  A
C693        H696   1.085       .  S
C694        C697   1.444       .  S
C697        N699   1.157       .  T
C698        N700   1.156       .  T
C701        C702   1.404       .  A
C701        C706   1.414       .  A
C702        C703   1.400       .  A
C702        H707   1.085       .  S
C703        C704   1.414       .  A
C703        C710   1.445       .  S
C704        C705   1.402       .  A
C705        C706   1.394       .  A
C705        H708   1.085       .  S
C706        C709   1.445       .  S
C709        N711   1.157       .  T
C710        N712   1.157       .  T
C713        C714   1.403       .  A
C713        C718   1.406       .  A
C714        C715   1.404       .  A
C714        H719   1.085       .  S
C715        C716   1.416       .  A
C715        C722   1.444       .  S
C716        C717   1.408       .  A
C717        C718   1.396       .  A
C717        H720   1.084       .  S
C718        C721   1.445       .  S
C721        N723   1.157       .  T
C722        N724   1.157       .  T
C725        C726   1.403       .  A
C725        C730   1.411       .  A
C726        C727   1.393       .  A
C726        H731   1.085       .  S
C727        C728   1.410       .  A
C727        C734   1.445       .  S
C728        C729   1.405       .  A
C729        C730   1.403       .  A
C729        H732   1.084       .  S
C730        C733   1.444       .  S
C733        N735   1.157       .  T
C734        N736   1.157       .  T
C737        C738   1.402       .  A
C737        C742   1.415       .  A
C738        C739   1.403       .  A
C738        H743   1.085       .  S
C739        C740   1.413       .  A
C739        C746   1.444       .  S
C740        C741   1.401       .  A
C741        C742   1.402       .  A
C741        H744   1.085       .  S
C742        C745   1.445       .  S
C745        N747   1.157       .  T
C746        N748   1.157       .  T
C749        C750   1.408   1_545  A
C749        C754   1.417   1_545  A
C750        C751   1.402       .  A
C750        H755   1.085       .  S
C751        C752   1.412       .  A
C751        C758   1.445       .  S
C752        C753   1.404       .  A
C753        C754   1.407       .  A
C753        H756   1.085       .  S
C754        C757   1.443   1_565  S
C757        N759   1.157       .  T
C758        N760   1.157       .  T
C761        C762   1.408       .  A
C761        C766   1.414   1_655  A
C762        C763   1.395   1_655  A
C762        H767   1.084       .  S
C763        C764   1.406       .  A
C763        C770   1.444       .  S
C764        C765   1.403       .  A
C765        C766   1.402       .  A
C765        H768   1.085       .  S
C766        C769   1.444       .  S
C769        N771   1.157       .  T
C770        N772   1.157       .  T
C773        C774   1.410       .  A
C773        C778   1.421       .  A
C774        C775   1.405       .  A
C774        H779   1.084       .  S
C775        C776   1.410       .  A
C775        C782   1.445       .  S
C776        C777   1.402       .  A
C777        C778   1.408       .  A
C777        H780   1.085       .  S
C778        C781   1.443       .  S
C781        N783   1.157       .  T
C782        N784   1.157       .  T
C785        C786   1.404       .  A
C785        C790   1.407       .  A
C786        C787   1.404       .  A
C786        H791   1.085       .  S
C787        C788   1.415       .  A
C787        C794   1.444       .  S
C788        C789   1.408       .  A
C789        C790   1.399       .  A
C789        H792   1.085       .  S
C790        C793   1.445       .  S
C793        N795   1.157       .  T
C794        N796   1.157       .  T
C797        C798   1.401       .  A
C797        C802   1.410       .  A
C798        C799   1.402       .  A
C798        H803   1.085       .  S
C799        C800   1.418       .  A
C799        C806   1.444       .  S
C800        C801   1.408       .  A
C801        C802   1.404       .  A
C801        H804   1.084       .  S
C802        C805   1.443       .  S
C805        N807   1.157       .  T
C806        N808   1.157       .  T
C809        C810   1.401       .  A
C809        C814   1.413       .  A
C810        C811   1.398       .  A
C810        H815   1.085       .  S
C811        C812   1.417       .  A
C811        C818   1.445   1_655  S
C812        C813   1.405       .  A
C813        C814   1.402       .  A
C813        H816   1.085       .  S
C814        C817   1.444       .  S
C817        N819   1.157       .  T
C818        N820   1.157       .  T
C821        C822   1.398       .  A
C821        C826   1.414       .  A
C822        C823   1.391       .  A
C822        H827   1.086       .  S
C823        C824   1.413       .  A
C823        C830   1.446       .  S
C824        C825   1.402       .  A
C825        C826   1.406       .  A
C825        H828   1.084       .  S
C826        C829   1.443       .  S
C829        N831   1.157       .  T
C830        N832   1.157       .  T
C833        C834   1.403       .  A
C833        C838   1.413       .  A
C834        C835   1.400   1_556  A
C834        H839   1.085   1_556  S
C835        C836   1.412   1_554  A
C835        C842   1.445       .  S
C836        C837   1.403       .  A
C837        C838   1.403       .  A
C837        H840   1.085       .  S
C838        C841   1.444       .  S
C841        N843   1.157       .  T
C842        N844   1.157       .  T
C845        C846   1.408       .  A
C845        C850   1.414       .  A
C846        C847   1.403       .  A
C846        H851   1.085       .  S
C847        C848   1.408       .  A
C847        C854   1.444   1_565  S
C848        C849   1.405       .  A
C849        C850   1.407       .  A
C849        H852   1.085       .  S
C850        C853   1.443       .  S
C853        N855   1.157       .  T
C854        N856   1.157       .  T
C857        C858   1.407       .  A
C857        C862   1.410       .  A
C858        C859   1.398       .  A
C858        H863   1.085       .  S
C859        C860   1.410       .  A
C859        C866   1.444       .  S
C860        C861   1.408       .  A
C861        C862   1.397       .  A
C861        H864   1.085       .  S
C862        C865   1.444       .  S
C865        N867   1.157       .  T
C866        N868   1.157       .  T
C869        C870   1.397       .  A
C869        C874   1.409       .  A
C870        C871   1.394       .  A
C870        H875   1.086       .  S
C871        C872   1.419       .  A
C871        C878   1.444       .  S
C872        C873   1.406       .  A
C873        C874   1.399       .  A
C873        H876   1.085       .  S
C874        C877   1.444       .  S
C877        N879   1.157       .  T
C878        N880   1.157   1_545  T
C881        C882   1.403       .  A
C881        C886   1.415       .  A
C882        C883   1.405       .  A
C882        H887   1.085       .  S
C883        C884   1.414       .  A
C883        C890   1.444       .  S
C884        C885   1.402       .  A
C885        C886   1.403       .  A
C885        H888   1.085       .  S
C886        C889   1.444       .  S
C889        N891   1.157       .  T
C890        N892   1.157       .  T
C893        C894   1.407       .  A
C893        C898   1.409       .  A
C894        C895   1.395       .  A
C894        H899   1.085       .  S
C895        C896   1.408       .  A
C895        C902   1.445       .  S
C896        C897   1.409       .  A
C897        C898   1.402       .  A
C897        H900   1.085       .  S
C898        C901   1.443       .  S
C901        N903   1.157       .  T
C902        N904   1.157       .  T
C905        C906   1.404       .  A
C905        C910   1.415       .  A
C906        C907   1.404       .  A
C906        H911   1.085       .  S
C907        C908   1.414       .  A
C907        C914   1.442       .  S
C908        C909   1.402       .  A
C909        C910   1.396       .  A
C909        H912   1.085       .  S
C910        C913   1.445       .  S
C913        N915   1.157       .  T
C914        N916   1.157       .  T
C917        C918   1.402       .  A
C917        C922   1.413       .  A
C918        C919   1.403       .  A
C918        H923   1.085       .  S
C919        C920   1.419   1_556  A
C919        C926   1.445   1_556  S
C920        C921   1.408   1_554  A
C921        C922   1.407       .  A
C921        H924   1.084       .  S
C922        C925   1.444       .  S
C925        N927   1.157       .  T
C926        N928   1.157       .  T
C929        C930   1.403       .  A
C929        C934   1.408       .  A
C930        C931   1.403       .  A
C930        H935   1.085       .  S
C931        C932   1.416       .  A
C931        C938   1.444       .  S
C932        C933   1.407       .  A
C933        C934   1.399       .  A
C933        H936   1.084       .  S
C934        C937   1.445       .  S
C937        N939   1.157       .  T
C938        N940   1.157       .  T
C941        C942   1.404       .  A
C941        C946   1.412       .  A
C942        C943   1.396       .  A
C942        H947   1.085       .  S
C943        C944   1.412       .  A
C943        C950   1.445       .  S
C944        C945   1.406       .  A
C945        C946   1.405       .  A
C945        H948   1.084       .  S
C946        C949   1.443       .  S
C949        N951   1.157       .  T
C950        N952   1.157       .  T
C953        C954   1.404       .  A
C953        C958   1.418       .  A
C954        C955   1.406   1_556  A
C954        H959   1.085   1_556  S
C955        C956   1.414   1_554  A
C955        C962   1.444       .  S
C956        C957   1.399       .  A
C957        C958   1.403       .  A
C957        H960   1.085       .  S
C958        C961   1.441       .  S
C961        N963   1.156       .  T
C962        N964   1.157       .  T
C965        C966   1.404       .  A
C965        C970   1.418       .  A
C966        C967   1.400       .  A
C966        H971   1.085       .  S
C967        C968   1.416       .  A
C967        C974   1.445   1_565  S
C968        C969   1.403   1_556  A
C969        C970   1.400   1_554  A
C969        H972   1.085       .  S
C970        C973   1.445   1_556  S
C973        N975   1.157       .  T
C974        N976   1.157       .  T
C977        C978   1.406       .  A
C977        C982   1.417       .  A
C978        C979   1.404       .  A
C978        H983   1.085       .  S
C979        C980   1.411       .  A
C979        C986   1.444       .  S
C980        C981   1.402   1_565  A
C981        C982   1.406   1_545  A
C981        H984   1.085       .  S
C982        C985   1.444       .  S
C985        N987   1.157       .  T
C986        N988   1.157       .  T
C989        C990   1.407       .  A
C989        C994   1.410       .  A
C990        C991   1.405       .  A
C990        H995   1.085       .  S
C991        C992   1.412       .  A
C991        C998   1.444       .  S
C992        C993   1.406       .  A
C993        C994   1.397       .  A
C993        H996   1.085       .  S
C994        C997   1.445       .  S
C997        N999   1.157       .  T
C998       N1000   1.157       .  T
C1001      C1002   1.404       .  A
C1001      C1006   1.413       .  A
C1002      C1003   1.406       .  A
C1002      H1007   1.085       .  S
C1003      C1004   1.416       .  A
C1003      C1010   1.443       .  S
C1004      C1005   1.406       .  A
C1005      C1006   1.401       .  A
C1005      H1008   1.085   1_556  S
C1006      C1009   1.445       .  S
C1009      N1011   1.157       .  T
C1010      N1012   1.157       .  T
C1013      C1014   1.404   1_556  A
C1013      C1018   1.415       .  A
C1014      C1015   1.398   1_554  A
C1014      H1019   1.085       .  S
C1015      C1016   1.413       .  A
C1015      C1022   1.445   1_556  S
C1016      C1017   1.404       .  A
C1017      C1018   1.399       .  A
C1017      H1020   1.085       .  S
C1018      C1021   1.445       .  S
C1021      N1023   1.157       .  T
C1022      N1024   1.157       .  T
C1025      C1026   1.409       .  A
C1025      C1030   1.410       .  A
C1026      C1027   1.407       .  A
C1026      H1031   1.085       .  S
C1027      C1028   1.407       .  A
C1027      C1034   1.443       .  S
C1028      C1029   1.403       .  A
C1029      C1030   1.392       .  A
C1029      H1032   1.086       .  S
C1030      C1033   1.446       .  S
C1033      N1035   1.157       .  T
C1034      N1036   1.157       .  T
C1037      C1038   1.405       .  A
C1037      C1042   1.416       .  A
C1038      C1039   1.402       .  A
C1038      H1043   1.085       .  S
C1039      C1040   1.410       .  A
C1039      C1046   1.444       .  S
C1040      C1041   1.399       .  A
C1041      C1042   1.401       .  A
C1041      H1044   1.085       .  S
C1042      C1045   1.444       .  S
C1045      N1047   1.157       .  T
C1046      N1048   1.157       .  T
C1049      C1050   1.404       .  A
C1049      C1054   1.407       .  A
C1050      C1051   1.402       .  A
C1050      H1055   1.085       .  S
C1051      C1052   1.415       .  A
C1051      C1058   1.444       .  S
C1052      C1053   1.408       .  A
C1053      C1054   1.396       .  A
C1053      H1056   1.084       .  S
C1054      C1057   1.445       .  S
C1057      N1059   1.157       .  T
C1058      N1060   1.157       .  T
C1061      C1062   1.404       .  A
C1061      C1066   1.406       .  A
C1062      C1063   1.403       .  A
C1062      H1067   1.085       .  S
C1063      C1064   1.410       .  A
C1063      C1070   1.440       .  S
C1064      C1065   1.406       .  A
C1065      C1066   1.391       .  A
C1065      H1068   1.086       .  S
C1066      C1069   1.446       .  S
C1069      N1071   1.157       .  T
C1070      N1072   1.156       .  T
C1073      C1074   1.403       .  A
C1073      C1078   1.410       .  A
C1074      C1075   1.405       .  A
C1074      H1079   1.085       .  S
C1075      C1076   1.417       .  A
C1075      C1082   1.443       .  S
C1076      C1077   1.407       .  A
C1077      C1078   1.399       .  A
C1077      H1080   1.085       .  S
C1078      C1081   1.445       .  S
C1081      N1083   1.157       .  T
C1082      N1084   1.157       .  T
C1085      C1086   1.411   1_455  A
C1085      C1090   1.413       .  A
C1086      C1087   1.400       .  A
C1086      H1091   1.084       .  S
C1087      C1088   1.412       .  A
C1087      C1094   1.445       .  S
C1088      C1089   1.410       .  A
C1089      C1090   1.401   1_655  A
C1089      H1092   1.084       .  S
C1090      C1093   1.444       .  S
C1093      N1095   1.157       .  T
C1094      N1096   1.157       .  T
C1097      C1098   1.404       .  A
C1097      C1102   1.407       .  A
C1098      C1099   1.406       .  A
C1098      H1103   1.085       .  S
C1099      C1100   1.416       .  A
C1099      C1106   1.444       .  S
C1100      C1101   1.409       .  A
C1101      C1102   1.401       .  A
C1101      H1104   1.085       .  S
C1102      C1105   1.445       .  S
C1105      N1107   1.157       .  T
C1106      N1108   1.157       .  T
C1109      C1110   1.405       .  A
C1109      C1114   1.414       .  A
C1110      C1111   1.398       .  A
C1110      H1115   1.085       .  S
C1111      C1112   1.415       .  A
C1111      C1118   1.445       .  S
C1112      C1113   1.407       .  A
C1113      C1114   1.403       .  A
C1113      H1116   1.085       .  S
C1114      C1117   1.444       .  S
C1117      N1119   1.157       .  T
C1118      N1120   1.157       .  T
C1121      C1122   1.403       .  A
C1121      C1126   1.413       .  A
C1122      C1123   1.397   1_455  A
C1122      H1127   1.085       .  S
C1123      C1124   1.414       .  A
C1123      C1130   1.445       .  S
C1124      C1125   1.403   1_655  A
C1125      C1126   1.402       .  A
C1125      H1128   1.085       .  S
C1126      C1129   1.443       .  S
C1129      N1131   1.157       .  T
C1130      N1132   1.157       .  T
C1133      C1134   1.407       .  A
C1133      C1138   1.419       .  A
C1134      C1135   1.401       .  A
C1134      H1139   1.084       .  S
C1135      C1136   1.411   1_565  A
C1135      C1142   1.445   1_565  S
C1136      C1137   1.402   1_545  A
C1137      C1138   1.407       .  A
C1137      H1140   1.085       .  S
C1138      C1141   1.444       .  S
C1141      N1143   1.157       .  T
C1142      N1144   1.157       .  T
C1145      C1146   1.406       .  A
C1145      C1150   1.413       .  A
C1146      C1147   1.400       .  A
C1146      H1151   1.085       .  S
C1147      C1148   1.413       .  A
C1147      C1154   1.444       .  S
C1148      C1149   1.405       .  A
C1149      C1150   1.398       .  A
C1149      H1152   1.085       .  S
C1150      C1153   1.445       .  S
C1153      N1155   1.157       .  T
C1154      N1156   1.157       .  T
C1157      C1158   1.407       .  A
C1157      C1162   1.416       .  A
C1158      C1159   1.397       .  A
C1158      H1163   1.084       .  S
C1159      C1160   1.407       .  A
C1159      C1166   1.445       .  S
C1160      C1161   1.402       .  A
C1161      C1162   1.403       .  A
C1161      H1164   1.084       .  S
C1162      C1165   1.444       .  S
C1165      N1167   1.157       .  T
C1166      N1168   1.157       .  T
C1169      C1170   1.405       .  A
C1169      C1174   1.413       .  A
C1170      C1171   1.404       .  A
C1170      H1175   1.085       .  S
C1171      C1172   1.415       .  A
C1171      C1178   1.444       .  S
C1172      C1173   1.405       .  A
C1173      C1174   1.402       .  A
C1173      H1176   1.085       .  S
C1174      C1177   1.444       .  S
C1177      N1179   1.157       .  T
C1178      N1180   1.157       .  T
C1181      C1182   1.409   1_455  A
C1181      C1186   1.408       .  A
C1182      C1183   1.399       .  A
C1182      H1187   1.085       .  S
C1183      C1184   1.407       .  A
C1183      C1190   1.444       .  S
C1184      C1185   1.410   1_665  A
C1185      C1186   1.397   1_545  A
C1185      H1188   1.085       .  S
C1186      C1189   1.445   1_565  S
C1189      N1191   1.157       .  T
C1190      N1192   1.157       .  T
C1193      C1194   1.398       .  A
C1193      C1198   1.409       .  A
C1194      C1195   1.399       .  A
C1194      H1199   1.085       .  S
C1195      C1196   1.421       .  A
C1195      C1202   1.444       .  S
C1196      C1197   1.406       .  A
C1197      C1198   1.400       .  A
C1197      H1200   1.084       .  S
C1198      C1201   1.443       .  S
C1201      N1203   1.157       .  T
C1202      N1204   1.157       .  T
C1205      C1206   1.407       .  A
C1205      C1210   1.420       .  A
C1206      C1207   1.398       .  A
C1206      H1211   1.084       .  S
C1207      C1208   1.407       .  A
C1207      C1214   1.444       .  S
C1208      C1209   1.398       .  A
C1209      C1210   1.398       .  A
C1209      H1212   1.085       .  S
C1210      C1213   1.444   1_655  S
C1213      N1215   1.157       .  T
C1214      N1216   1.157       .  T
