geometry optimzed in LAMMPS
_audit_creation_date              2020-12-01 
_audit_creation_method            'lammps2cif' 
_symmetry_space_group_name_H-M    'P1' 
_symmetry_Int_Tables_number       1 
_symmetry_cell_setting            triclinic 
loop_ 
_symmetry_equiv_pos_as_xyz 
  x,y,z 
_cell_length_a                    36.70237611 
_cell_length_b                    36.68650344366363 
_cell_length_c                    32.34004596288237 
_cell_angle_alpha                 89.99722137958486 
_cell_angle_beta                  90.00099262936683 
_cell_angle_gamma                 90.00156375069236 
loop_ 
_atom_site_label 
_atom_site_type_symbol 
_atom_site_fract_x 
_atom_site_fract_y 
_atom_site_fract_z 
_atom_site_charge 
C1          C  0.39048880  0.31398288  0.31009945     0.79900
N2          N  0.40288110  0.34606116  0.29551813    -0.78400
C3          C  0.43542410  0.35922074  0.30777412     0.82400
N4          N  0.45632031  0.33982869  0.33471482    -0.78300
C5          C  0.44445431  0.30693369  0.34892322     0.82500
N6          N  0.41116020  0.29429787  0.33701397    -0.80000
C7          C  0.38937412  0.40652839  0.09375426     0.79900
N8          N  0.37756104  0.37367124  0.10700869    -0.78400
C9          C  0.34425288  0.36095913  0.09667997     0.82400
N10         N  0.32129336  0.38253612  0.07434751    -0.78300
C11         C  0.33223848  0.41629414  0.06147091     0.82500
N12         N  0.36646192  0.42817814  0.07131253    -0.80000
C13         C  0.18029768  0.36136949  0.33648169     0.79900
N14         N  0.14761949  0.37490989  0.32476238    -0.78400
C15         C  0.13656137  0.40845396  0.33680791     0.82400
N16         N  0.15970029  0.42992005  0.35928796    -0.78300
C17         C  0.19337316  0.41725011  0.37039408     0.82500
N18         N  0.20342221  0.38282349  0.35881737    -0.80000
C19         C  0.43711984  0.11846791  0.12364508     0.79900
N20         N  0.45719290  0.13888920  0.09687024    -0.78400
C21         C  0.44469491  0.17196873  0.08425572     0.82400
N22         N  0.41151744  0.18364861  0.09725585    -0.78300
C23         C  0.39167947  0.16300592  0.12393093     0.82500
N24         N  0.40463682  0.13071369  0.13721066    -0.80000
C25         C  0.10552225  0.42429688  0.31447775     0.42200
N26         N  0.07890847  0.45332376  0.26562475     0.01100
C27         C  0.41372516  0.04465590  0.26837690    -0.06800
H28         H  0.40905364  0.40631735  0.23671853     0.06600
C29         C  0.45623042  0.43483344  0.10160023    -0.07100
Co30       Co  0.00951952  0.48841345  0.29188624     0.74200
N31         N  0.44892451  0.44602369  0.25608513    -0.26300
Co32       Co  0.44703962  0.48870519  0.21188922     0.74100
C33         C  0.42047640  0.42212163  0.11589355     0.42300
N34         N  0.05131220  0.44649757  0.14388867     0.00700
N35         N  0.44643157  0.45198780  0.16444974     0.00800
N36         N  0.44984655  0.04014684  0.32477157    -0.47200
H37         H  0.05757853  0.43476920  0.35909874     0.06600
N38         N  0.47346213  0.44574570  0.28623455     0.01100
N39         N  0.45182989  0.03122817  0.16764611     0.00800
C40         C  0.44872703  0.08220760  0.13587298     0.42400
N41         N  0.07569331  0.44699055  0.17418680    -0.25800
C42         C  0.04455808  0.06236646  0.31046951    -0.06700
N43         N  0.10929403  0.43623810  0.27559475    -0.46900
N44         N  0.43319384  0.06209114  0.16622271    -0.47100
C45         C  0.07368623  0.08333936  0.29227518     0.42200
N46         N  0.46463232  0.02363747  0.29213833     0.01100
N47         N  0.08096486  0.02572278  0.16971564    -0.25800
N48         N  0.05482684  0.45382746  0.29570984    -0.26300
N49         N  0.05968878  0.02408373  0.13706941     0.00700
H50         H  0.13519205  0.04577708  0.17964113     0.06600
H51         H  0.49772486  0.06904749  0.09441288     0.06600
N52         N  0.44326543  0.02503957  0.25957475    -0.26300
N53         N  0.47033677  0.45307347  0.13420734    -0.26000
N54         N  0.07177701  0.03208511  0.26147216     0.01100
C55         C  0.44652058  0.39484431  0.29239850     0.42500
C56         C  0.09369614  0.41538338  0.17358630    -0.07200
N57         N  0.47834134  0.03061166  0.13978922    -0.26000
H58         H  0.96786231  0.43376391  0.07090181     0.06600
N59         N  0.47307075  0.41558025  0.30863892    -0.47200
H60         H  0.11428110  0.40685949  0.19547152     0.06600
C61         C  0.10736941  0.05326855  0.11723856     0.42300
C62         C  0.06929834  0.43603613  0.32845359    -0.06700
Co63       Co  0.07738164  0.48969714  0.21778715     0.73800
N64         N  0.05104189  0.41581697  0.12254785    -0.46900
C65         C  0.41798796  0.05452963  0.31134245     0.42600
N66         N  0.08970446  0.06328810  0.26231498    -0.46900
Co67       Co  0.01495727  0.48848716  0.13772551     0.73900
C68         C  0.47837405  0.06155604  0.11816316    -0.07200
C69         C  0.43020374  0.41476890  0.25793321    -0.06800
N70         N  0.04533316  0.03115890  0.28938566    -0.26300
N71         N  0.41652719  0.43403858  0.15474135    -0.47100
H72         H  0.38961581  0.04647799  0.24923719     0.06600
C73         C  0.11105412  0.04437223  0.16050993    -0.07200
Cl74       Cl  0.01222085  0.48882819  0.21482451    -0.50200
C75         C  0.07692170  0.39504723  0.13982737     0.42300
H76         H  0.02504736  0.06978551  0.33407826     0.06500
N77         N  0.07511745  0.03946824  0.10404855    -0.46900
C78         C  0.13291540  0.31468191  0.12410067     0.79900
N79         N  0.11980186  0.34634857  0.13861814    -0.78400
C80         C  0.08764539  0.35932653  0.12547062     0.82400
N81         N  0.06750879  0.34008739  0.09779989    -0.78300
C82         C  0.07998787  0.30742195  0.08373643     0.82500
N83         N  0.11322845  0.29498946  0.09629418    -0.80000
C84         C  0.38759172  0.06860405  0.33601552     0.79900
N85         N  0.37398747  0.10109487  0.32414755    -0.78400
C86         C  0.34075982  0.11246253  0.33645700     0.82400
N87         N  0.31953714  0.08981680  0.35986322    -0.78300
C88         C  0.33245967  0.05639447  0.37171802     0.82500
N89         N  0.36659625  0.04592726  0.35947676    -0.80000
C90         C  0.07944668  0.17220830  0.34464909     0.79900
N91         N  0.11246009  0.18382536  0.33087071    -0.78400
C92         C  0.13120063  0.16324778  0.30319452     0.82400
N93         N  0.11749129  0.13136921  0.28996546    -0.78300
C94         C  0.08537942  0.11931121  0.30437685     0.82500
N95         N  0.06620994  0.13949829  0.33198983    -0.80000
C96         C  0.19375386  0.05596993  0.05776199     0.79900
N97         N  0.15991825  0.04470788  0.07030927    -0.78400
C98         C  0.13790988  0.06744981  0.09257450     0.82400
N99         N  0.15031404  0.10084364  0.10310767    -0.78300
C100        C  0.18320818  0.11301961  0.09044463     0.82500
N101        N  0.20529569  0.09030590  0.06811078    -0.80000
C102        C  0.35439685  0.30183396  0.29725026     0.42200
N103        N  0.30419840  0.29789505  0.26376619     0.01100
C104        C  0.18736867  0.15638837  0.25550296    -0.06800
H105        H  0.31725788  0.11406981  0.24986796     0.06600
C106        C  0.33468584  0.20368510  0.11858918    -0.07100
Co107      Co  0.26087544  0.23468779  0.29219830     0.74200
N108        N  0.29741034  0.16839763  0.25977038    -0.26300
Co109      Co  0.26176173  0.17212495  0.21153522     0.74100
C110        C  0.35530988  0.17396812  0.13611641     0.42300
N111        N  0.29772682  0.28455083  0.13921850     0.00700
N112        N  0.30447510  0.17691815  0.16790690     0.00800
N113        N  0.18805510  0.19893528  0.30667793    -0.47200
H114        H  0.34105131  0.25221191  0.33780618     0.06600
N115        N  0.29609085  0.18984699  0.29234092     0.01100
N116        N  0.22555198  0.17105549  0.16332996     0.00800
C117        C  0.19812574  0.14432715  0.11325958     0.42400
N118        N  0.29890709  0.30588326  0.17184354    -0.25800
C119        C  0.20688203  0.29377267  0.32821323    -0.06700
N120        N  0.33463570  0.31714165  0.26641076    -0.46900
N121        N  0.20897216  0.14058129  0.15257811    -0.47100
C122        C  0.19405969  0.32955449  0.31375946     0.42200
N123        N  0.21870265  0.19858386  0.28535031     0.01100
N124        N  0.22000218  0.30116297  0.17425693    -0.25800
N125        N  0.30337949  0.27113884  0.29128263    -0.26300
N126        N  0.21959217  0.27673835  0.14397708     0.00700
H127        H  0.18047994  0.34095908  0.19409034     0.06600
H128        H  0.20950419  0.19252679  0.06927852     0.06600
N129        N  0.21903669  0.17426614  0.25495431    -0.26300
N130        N  0.30383003  0.20356412  0.14024258    -0.26000
N131        N  0.22484617  0.30362253  0.26575358     0.01100
C132        C  0.32489682  0.14214826  0.31213944     0.42500
C133        C  0.31928288  0.33502538  0.16368168    -0.07200
N134        N  0.22662538  0.19528891  0.13339771    -0.26000
H135        H  0.34214442  0.22313394  0.09492239     0.06600
N136        N  0.31172360  0.17461568  0.32527163    -0.47200
H137        H  0.32118816  0.35906502  0.18293807     0.06600
C138        C  0.16881231  0.30372214  0.13827667     0.42300
C139        C  0.33387922  0.27148053  0.31383723    -0.06700
Co140      Co  0.26213466  0.30269301  0.21887227     0.73800
N141        N  0.31530895  0.29902381  0.10716959    -0.46900
C142        C  0.16719920  0.17317949  0.28932287     0.42600
N143        N  0.20675720  0.33354397  0.27521301    -0.46900
Co144      Co  0.26175603  0.24020007  0.13823669     0.73900
C145        C  0.20979983  0.18080520  0.09995861    -0.07200
C146        C  0.31586511  0.13823521  0.26897626    -0.06800
N147        N  0.22555970  0.27963749  0.29591083    -0.26300
N148        N  0.33530347  0.15824083  0.16640974    -0.47100
H149        H  0.17875925  0.13586253  0.23357889     0.06600
C150        C  0.18886716  0.31995805  0.17263928    -0.07200
Cl151      Cl  0.26165758  0.23740451  0.21520857    -0.50200
C152        C  0.33018625  0.33049863  0.12113551     0.42300
H153        H  0.20541268  0.28209921  0.35887553     0.06500
N154        N  0.18934185  0.27720742  0.12174381    -0.46900
N155        N  0.26825420  0.48019181  0.54107757    -0.36900
N156        N  0.22568835  0.44360890  0.47645145    -0.57400
N157        N  0.26536979  0.48414974  0.41229750    -0.36900
N158        N  0.30567098  0.02303337  0.47739821    -0.57400
C159        C  0.24203424  0.46412284  0.56424506     0.26700
C160        C  0.28431658  0.00605382  0.56477925     0.26700
C161        C  0.23981131  0.46713653  0.38851615     0.26700
C162        C  0.28255437  0.00995889  0.38904238     0.26700
C163        C  0.21403067  0.42466380  0.50986711     0.35300
C164        C  0.21247112  0.42609236  0.44281980     0.35300
C165        C  0.32434791  0.03439484  0.51113970     0.35300
C166        C  0.32322149  0.03681340  0.44406857     0.35300
C167        C  0.24186031  0.47954031  0.60339812    -0.22200
C168        C  0.26853689  0.50597196  0.60374140    -0.22200
C169        C  0.24119335  0.48210114  0.34913846    -0.22200
C170        C  0.26795972  0.50892768  0.34946859    -0.22200
C171        C  0.19309886  0.39522043  0.49747133    -0.23200
C172        C  0.19200017  0.39614694  0.45522664    -0.23200
C173        C  0.35370990  0.05568329  0.49922308    -0.23200
C174        C  0.35294323  0.05734047  0.45696890    -0.23200
C175        C  0.21921704  0.43504979  0.55154654    -0.18600
C176        C  0.31362475  0.02881873  0.55268956    -0.18600
C177        C  0.31179074  0.03341566  0.40226897    -0.18600
C178        C  0.21627072  0.43775802  0.40116616    -0.18600
H179        H  0.22430159  0.47252690  0.62908199     0.14300
H180        H  0.27544784  0.02321984  0.62973446     0.14300
H181        H  0.22470542  0.47442806  0.32279530     0.14300
H182        H  0.27584501  0.02568071  0.32341680     0.14300
H183        H  0.17927381  0.37552823  0.51683773     0.12600
H184        H  0.17709393  0.37714616  0.43603915     0.12600
H185        H  0.37317874  0.06946937  0.51890644     0.12600
H186        H  0.37186689  0.07264042  0.43807866     0.12600
H187        H  0.27592921  0.47272569  0.51141784     0.25900
H188        H  0.27175390  0.47749785  0.44248832     0.25900
N189        N  0.01014041  0.24179008  0.04065806    -0.36900
N190        N  0.47344827  0.19795612  0.97678395    -0.57400
N191        N  0.01517352  0.23611277  0.91226780    -0.36900
N192        N  0.05372028  0.27808166  0.97659364    -0.57400
C193        C  0.49227549  0.21753142  0.06492926     0.26700
C194        C  0.03444111  0.25977587  0.06476476     0.26700
C195        C  0.49694786  0.21148141  0.88841003     0.26700
C196        C  0.03979969  0.25420493  0.88829973     0.26700
C197        C  0.45535793  0.18555595  0.01043414     0.35300
C198        C  0.45709293  0.18296756  0.94336077     0.35300
C199        C  0.06624446  0.29640390  0.01002130     0.35300
C200        C  0.06856981  0.29424813  0.94300963     0.35300
C201        C  0.50475427  0.22084772  0.10523050    -0.22200
C202        C  0.03126949  0.24742418  0.10512944    -0.22200
C203        C  0.51017071  0.21415803  0.84832571    -0.22200
C204        C  0.03699790  0.24089834  0.84825933    -0.22200
C205        C  0.42753839  0.16231507  0.99834120    -0.23200
C206        C  0.42863884  0.16062894  0.95609343    -0.23200
C207        C  0.08940895  0.32417733  0.99766410    -0.23200
C208        C  0.09094283  0.32281450  0.95544316    -0.23200
C209        C  0.46464223  0.19285040  0.05214715    -0.18600
C210        C  0.05907709  0.28736386  0.05177174    -0.18600
C211        C  0.06385984  0.28305082  0.90128891    -0.18600
C212        C  0.46807082  0.18752156  0.90153195    -0.18600
H213        H  0.49584086  0.20555483  0.13200132     0.14300
H214        H  0.04662802  0.25644830  0.13180215     0.14300
H215        H  0.50127988  0.19860370  0.82174135     0.14300
H216        H  0.05252539  0.24968519  0.82161513     0.14300
H217        H  0.40869570  0.14755205  0.01790345     0.12600
H218        H  0.41072197  0.14425904  0.93707798     0.12600
H219        H  0.10419672  0.34315741  0.01703633     0.12600
H220        H  0.10723951  0.34065814  0.93625785     0.12600
H221        H  0.00522360  0.24656984  0.00969476     0.25900
H222        H  0.01020034  0.24122538  0.94306983     0.25900
N223        N  0.01502790  0.24105414  0.38987400    -0.36900
N224        N  0.47510820  0.27821549  0.45525160    -0.57400
N225        N  0.01731454  0.23803779  0.51903928    -0.36900
N226        N  0.05434049  0.19783402  0.45313628    -0.57400
C227        C  0.48929209  0.25804458  0.36680415     0.26700
C228        C  0.03145100  0.21600665  0.36555705     0.26700
C229        C  0.49344389  0.25639290  0.54367349     0.26700
C230        C  0.03579938  0.21314743  0.54237219     0.26700
C231        C  0.46167932  0.29660745  0.42221296     0.35300
C232        C  0.46288349  0.29571758  0.48935380     0.35300
C233        C  0.07123605  0.18555207  0.41864969     0.35300
C234        C  0.07227215  0.18313117  0.48573566     0.35300
C235        C  0.98983777  0.24401024  0.32699754    -0.22200
C236        C  0.01644561  0.21753987  0.32618243    -0.22200
C237        C  0.99735185  0.24338248  0.58375161    -0.22200
C238        C  0.02388231  0.21631498  0.58293383    -0.22200
C239        C  0.44057127  0.32561821  0.43536308    -0.23200
C240        C  0.44129744  0.32510630  0.47761523    -0.23200
C241        C  0.09971373  0.16257875  0.42940833    -0.23200
C242        C  0.10031411  0.16096601  0.47165230    -0.23200
C243        C  0.46618085  0.28664650  0.38024250    -0.18600
C244        C  0.06033491  0.19259650  0.37738742    -0.18600
C245        C  0.06337059  0.18813476  0.52811577    -0.18600
C246        C  0.46881258  0.28491289  0.53105698    -0.18600
H247        H  0.47286511  0.25200116  0.30117419     0.14300
H248        H  0.02383923  0.20125290  0.29956722     0.14300
H249        H  0.48257066  0.25239522  0.61084243     0.14300
H250        H  0.03322191  0.20066010  0.60924668     0.14300
H251        H  0.42571688  0.34495254  0.41652673     0.12600
H252        H  0.42701527  0.34416268  0.49733978     0.12600
H253        H  0.11794209  0.14796979  0.40897227     0.12600
H254        H  0.11926180  0.14501277  0.48981933     0.12600
H255        H  0.02226747  0.24719041  0.41998280     0.25900
H256        H  0.02129898  0.24302924  0.48797597     0.25900
N257        N  0.26344402  0.48014023  0.89007289    -0.36900
N258        N  0.22368653  0.02281161  0.95310610    -0.57400
N259        N  0.26166668  0.48362501  0.01850001    -0.36900
N260        N  0.30315466  0.44272482  0.95498561    -0.57400
C261        C  0.24751483  0.00578804  0.86607541     0.26700
C262        C  0.28977608  0.46376405  0.86724143     0.26700
C263        C  0.24475156  0.00996816  0.04131829     0.26700
C264        C  0.28715365  0.46683004  0.04245159     0.26700
C265        C  0.20562496  0.03347365  0.91872719     0.35300
C266        C  0.20461581  0.03581598  0.98575829     0.35300
C267        C  0.31508280  0.42332353  0.92201291     0.35300
C268        C  0.31374362  0.42425536  0.98906431     0.35300
C269        C  0.26348174  0.50529400  0.82718072    -0.22200
C270        C  0.29014618  0.47883396  0.82794192    -0.22200
C271        C  0.25960753  0.50960700  0.08075882    -0.22200
C272        C  0.28618398  0.48257154  0.08147646    -0.22200
C273        C  0.17509154  0.05360118  0.92958838    -0.23200
C274        C  0.17446774  0.05512144  0.97187167    -0.23200
C275        C  0.33355179  0.39253442  0.93513855    -0.23200
C276        C  0.33269118  0.39304536  0.97744020    -0.23200
C277        C  0.21784319  0.02835253  0.87762930    -0.18600
C278        C  0.31217456  0.43444476  0.88030816    -0.18600
C279        C  0.30980588  0.43659805  0.03042176    -0.18600
C280        C  0.21527198  0.03296950  0.02779131    -0.18600
H281        H  0.25649523  0.02207349  0.80082331     0.14300
H282        H  0.30758311  0.47135095  0.80232613     0.14300
H283        H  0.25187829  0.02679720  0.10650389     0.14300
H284        H  0.30263944  0.47509863  0.10791982     0.14300
H285        H  0.15566853  0.06665231  0.90921840     0.12600
H286        H  0.15439309  0.06952087  0.99013794     0.12600
H287        H  0.34692676  0.37215634  0.91629195     0.12600
H288        H  0.34548919  0.37300893  0.99722205     0.12600
H289        H  0.25534644  0.47305196  0.91967440     0.25900
H290        H  0.25498976  0.47605109  0.98863669     0.25900
C291        C  0.38835588  0.40775889  0.81032941     0.79900
N292        N  0.37589812  0.37592467  0.79516433    -0.78400
C293        C  0.34334933  0.36268164  0.80718304     0.82400
N294        N  0.32244448  0.38176805  0.83433834    -0.78300
C295        C  0.33426848  0.41446256  0.84906885     0.82500
N296        N  0.36765292  0.42719800  0.83749471    -0.80000
C297        C  0.39175327  0.15364457  0.83525051     0.79900
N298        N  0.41310714  0.17607618  0.85861665    -0.78400
C299        C  0.44716918  0.16517349  0.87066421     0.82400
N300        N  0.45959998  0.13158593  0.85883327    -0.78300
C301        C  0.43805885  0.10921368  0.83552954     0.82500
N302        N  0.40494883  0.12100132  0.82328441    -0.80000
C303        C  0.19895168  0.04931112  0.84508245     0.79900
N304        N  0.21208432  0.08232901  0.83307177    -0.78400
C305        C  0.19294684  0.10276935  0.80554835     0.82400
N306        N  0.16103853  0.09060742  0.79063408    -0.78300
C307        C  0.14748766  0.05845497  0.80320248     0.82500
N308        N  0.16615684  0.03768044  0.83072116    -0.80000
C309        C  0.09802635  0.35994822  0.83640841     0.79900
N310        N  0.13103335  0.34714362  0.82490458    -0.75200
C311        C  0.14281592  0.31392012  0.83713426     0.82400
N312        N  0.12011652  0.29199441  0.85954682    -0.78300
C313        C  0.08615022  0.30391593  0.87043482     0.82500
N314        N  0.07532241  0.33806604  0.85875555    -0.80000
C315        C  0.08488715  0.16507824  0.55802425     0.79900
N316        N  0.11851513  0.17646515  0.57105573    -0.78400
C317        C  0.14047579  0.15367776  0.59332629     0.82400
N318        N  0.12824821  0.12008576  0.60331471    -0.78300
C319        C  0.09558185  0.10776884  0.59005571     0.82500
N320        N  0.07355527  0.13052771  0.56773248    -0.80000
C321        C  0.34134960  0.10351343  0.62355138     0.79900
N322        N  0.32118010  0.08296861  0.59701026    -0.78400
C323        C  0.33344014  0.04967829  0.58489094     0.82400
N324        N  0.36646613  0.03785709  0.59822325    -0.78300
C325        C  0.38641378  0.05860388  0.62468485     0.82500
N326        N  0.37372300  0.09117705  0.63740436    -0.80000
C327        C  0.17388073  0.29858447  0.81459169     0.42200
N328        N  0.19993314  0.26892366  0.76592835     0.01100
C329        C  0.36511613  0.17767861  0.76790717    -0.06800
H330        H  0.36950100  0.31560739  0.73587400     0.06600
C331        C  0.32191943  0.28659881  0.60142384    -0.07100
Co332      Co  0.26928825  0.23364813  0.79197228     0.74200
N333        N  0.32981111  0.27586295  0.75571327    -0.26300
Co334      Co  0.33129123  0.23318801  0.71164961     0.74100
C335        C  0.35763136  0.29938091  0.61576070     0.42300
N336        N  0.22696924  0.27555132  0.64415830     0.00700
N337        N  0.33157949  0.26985892  0.66441003     0.00800
N338        N  0.32929627  0.18204208  0.82457825    -0.47200
H339        H  0.22203514  0.28824563  0.85895391     0.06600
N340        N  0.30546853  0.27615756  0.78603960     0.01100
N341        N  0.32638342  0.19068783  0.66744222     0.00800
C342        C  0.32980112  0.13985415  0.63546841     0.42400
N343        N  0.20270742  0.27526706  0.67457836    -0.25800
C344        C  0.23392738  0.15989166  0.81128378    -0.06700
N345        N  0.16972690  0.28625341  0.77594462    -0.46900
N346        N  0.34533839  0.16004240  0.66572871    -0.47100
C347        C  0.20454804  0.13893103  0.79354468     0.42200
N348        N  0.31413650  0.19830169  0.79199174     0.01100
N349        N  0.19698830  0.19628402  0.67032142    -0.25800
N350        N  0.22420957  0.26851908  0.79581159    -0.26300
N351        N  0.21828915  0.19771426  0.63768531     0.00700
H352        H  0.14292275  0.17576639  0.68047442     0.06600
H353        H  0.28036110  0.15262225  0.59448053     0.06600
N354        N  0.33532437  0.19694131  0.75926931    -0.26300
N355        N  0.30773432  0.26857764  0.63413110    -0.26000
N356        N  0.20658637  0.19008030  0.76224459     0.01100
C357        C  0.33236068  0.32708678  0.79182911     0.42500
C358        C  0.18508423  0.30713509  0.67407848    -0.07200
N359        N  0.29965626  0.19112126  0.63985041    -0.26000
H360        H  0.31035967  0.28748815  0.57068427     0.06600
N361        N  0.30597461  0.30634453  0.80835465    -0.47200
H362        H  0.16469973  0.31589713  0.69608179     0.06600
C363        C  0.17090665  0.16786500  0.61816209     0.42300
C364        C  0.21009816  0.28674187  0.82843181    -0.06700
Co365      Co  0.20094991  0.23245304  0.71829695     0.73800
N366        N  0.22748959  0.30627746  0.62284509    -0.46900
C367        C  0.36123920  0.16796947  0.81093112     0.42600
N368        N  0.18850581  0.15895272  0.76350953    -0.46900
Co369      Co  0.26307256  0.23328666  0.63793987     0.73900
C370        C  0.29975564  0.16021570  0.61814466    -0.07200
C371        C  0.34852507  0.30714307  0.75730608    -0.06800
N372        N  0.23321368  0.19100486  0.78994793    -0.26300
N373        N  0.36146759  0.28778688  0.65471272    -0.47100
H374        H  0.38913904  0.17609770  0.74860220     0.06600
C375        C  0.16703303  0.17729480  0.66130845    -0.07200
Cl376      Cl  0.26613948  0.23307995  0.71497919    -0.50200
C377        C  0.20191054  0.32738133  0.64021002     0.42300
H378        H  0.25355782  0.15250969  0.83477861     0.06500
N379        N  0.20305488  0.18181382  0.60488251    -0.46900
C380        C  0.38878238  0.31492897  0.59378209     0.79900
N381        N  0.41194968  0.29327160  0.57167446    -0.78400
C382        C  0.44625263  0.30519306  0.56214318     0.82400
N383        N  0.45694028  0.33906049  0.57494647    -0.78300
C384        C  0.43372339  0.36057325  0.59706738     0.82500
N385        N  0.40040269  0.34779662  0.60710805    -0.80000
C386        C  0.14503241  0.40704275  0.62298867     0.79900
N387        N  0.15834142  0.37552299  0.63773055    -0.78400
C388        C  0.19082847  0.36290185  0.62519715     0.82400
N389        N  0.21103266  0.38235913  0.59774782    -0.78300
C390        C  0.19829067  0.41486800  0.58338244     0.82500
N391        N  0.16479494  0.42695237  0.59546443    -0.80000
C392        C  0.42458074  0.41972208  0.79776440     0.42200
N393        N  0.47455428  0.42366887  0.76386819     0.01100
C394        C  0.09155757  0.06508166  0.75497429    -0.06800
H395        H  0.46147906  0.10729014  0.74910901     0.06600
C396        C  0.44307666  0.01762410  0.61929970    -0.07100
Co397      Co  0.01806371  0.98676070  0.79181636     0.74200
N398        N  0.48162674  0.05314117  0.75939548    -0.26300
Co399      Co  0.01701291  0.04923640  0.71108828     0.74100
C400        C  0.42271868  0.04745408  0.63692140     0.42300
N401        N  0.48007728  0.43702017  0.63926367     0.00700
N402        N  0.47393411  0.04459752  0.66792818     0.00800
N403        N  0.09095141  0.02237105  0.80597458    -0.47200
H404        H  0.43826958  0.46922205  0.83838035     0.06600
N405        N  0.48289289  0.03173536  0.79199368     0.01100
N406        N  0.05295898  0.04994393  0.66273168     0.00800
C407        C  0.08053130  0.07645825  0.61266913     0.42400
N408        N  0.47901953  0.41576250  0.67195125    -0.25800
C409        C  0.07139151  0.42742350  0.82790453    -0.06700
N410        N  0.44413373  0.40445992  0.76673401    -0.46900
N411        N  0.06992959  0.08019623  0.65205887    -0.47100
C412        C  0.08377459  0.39148378  0.81364438     0.42200
N413        N  0.06034269  0.02266739  0.78459474     0.01100
N414        N  0.05809618  0.42032392  0.67351598    -0.25800
N415        N  0.47555616  0.45039847  0.79139579    -0.26300
N416        N  0.05818327  0.44454394  0.64301384     0.00700
H417        H  0.09810153  0.38109959  0.69351491     0.06600
H418        H  0.06824834  0.02860074  0.56847979     0.06600
N419        N  0.05996008  0.04704684  0.75426693    -0.26300
N420        N  0.47420238  0.01784670  0.64041058    -0.26000
N421        N  0.05379164  0.41771784  0.76524254     0.01100
C422        C  0.45356582  0.07926686  0.81137201     0.42500
C423        C  0.45839824  0.38673992  0.66404182    -0.07200
N424        N  0.05139370  0.02586085  0.63269048    -0.26000
H425        H  0.43531093  0.99807288  0.59587347     0.06600
N426        N  0.46696799  0.04694792  0.82475520    -0.47200
H427        H  0.45649290  0.36274615  0.68337417     0.06600
C428        C  0.10907239  0.41783238  0.63711737     0.42300
C429        C  0.44525204  0.44999705  0.81429849    -0.06700
Co430      Co  0.01624521  0.41880636  0.71859994     0.73800
N431        N  0.46231669  0.42254968  0.60736475    -0.46900
C432        C  0.11173882  0.04825988  0.78878570     0.42600
N433        N  0.07141114  0.38756531  0.77494086    -0.46900
Co434      Co  0.01612961  0.48117755  0.63785223     0.73900
C435        C  0.06820136  0.04024778  0.59919733    -0.07200
C436        C  0.46295818  0.08320610  0.76834638    -0.06800
N437        N  0.05316274  0.44172569  0.79539267    -0.26300
N438        N  0.44310920  0.06332213  0.66679720    -0.47100
H439        H  0.10006295  0.08582999  0.73326544     0.06600
C440        C  0.08937314  0.40178515  0.67184678    -0.07200
Cl441      Cl  0.01686700  0.98400038  0.71485845    -0.50200
C442        C  0.44738626  0.39118485  0.62150226     0.42300
H443        H  0.07263218  0.43904546  0.85860259     0.06500
N444        N  0.08829047  0.44411741  0.62051506    -0.46900
C445        C  0.39048810  0.81398443  0.31009769     0.79900
N446        N  0.40288022  0.84606281  0.29551647    -0.78400
C447        C  0.43542331  0.85922229  0.30777238     0.82400
N448        N  0.45631981  0.83983004  0.33471251    -0.78300
C449        C  0.44445389  0.80693505  0.34892082     0.82500
N450        N  0.41115965  0.79429939  0.33701198    -0.80000
C451        C  0.38937303  0.90652970  0.09375603     0.79900
N452        N  0.37755969  0.87367227  0.10700934    -0.78400
C453        C  0.34425153  0.86096056  0.09667988     0.82400
N454        N  0.32129234  0.88253825  0.07434776    -0.78300
C455        C  0.33223781  0.91629658  0.06147239     0.82500
N456        N  0.36646115  0.92818012  0.07131483    -0.80000
C457        C  0.18029693  0.86136851  0.33648128     0.79900
N458        N  0.14761891  0.87490943  0.32476202    -0.78400
C459        C  0.13656108  0.90845344  0.33680823     0.82400
N460        N  0.15970020  0.92991889  0.35928882    -0.78300
C461        C  0.19337284  0.91724832  0.37039493     0.82500
N462        N  0.20342154  0.88282181  0.35881760    -0.80000
C463        C  0.43711963  0.61846722  0.12364368     0.79900
N464        N  0.45719282  0.63888885  0.09686904    -0.78400
C465        C  0.44469497  0.67196872  0.08425489     0.82400
N466        N  0.41151746  0.68364843  0.09725514    -0.78300
C467        C  0.39167930  0.66300541  0.12392973     0.82500
N468        N  0.40463660  0.63071305  0.13720921    -0.80000
C469        C  0.10552207  0.92429708  0.31447835     0.42200
N470        N  0.07890843  0.95332450  0.26562562     0.01100
C471        C  0.41372502  0.54465496  0.26837699    -0.06800
H472        H  0.40905232  0.90631995  0.23671842     0.06600
C473        C  0.45622956  0.93483409  0.10160092    -0.07100
Co474      Co  0.00951915  0.98841399  0.29188694     0.74200
N475        N  0.44892406  0.94602546  0.25608497    -0.26300
Co476      Co  0.44703969  0.98870659  0.21188930     0.74100
C477        C  0.42047578  0.92212216  0.11589506     0.42300
N478        N  0.05131265  0.94649862  0.14388949     0.00700
N479        N  0.44643129  0.95198909  0.16445029     0.00800
N480        N  0.44984670  0.54014628  0.32477148    -0.47200
H481        H  0.05757819  0.93476896  0.35909930     0.06600
N482        N  0.47346191  0.94574697  0.28623411     0.01100
N483        N  0.45182970  0.53122722  0.16764581     0.00800
C484        C  0.44872665  0.58220657  0.13587178     0.42400
N485        N  0.07569358  0.94699138  0.17418779    -0.25800
C486        C  0.04455790  0.56236617  0.31046783    -0.06700
N487        N  0.10929389  0.93623861  0.27559549    -0.46900
N488        N  0.43319342  0.56209012  0.16622171    -0.47100
C489        C  0.07368538  0.58333948  0.29227274     0.42200
N490        N  0.46463200  0.52363623  0.29213844     0.01100
N491        N  0.08096473  0.52572158  0.16971467    -0.25800
N492        N  0.05482672  0.95382807  0.29571067    -0.26300
N493        N  0.05968894  0.52408220  0.13706824     0.00700
H494        H  0.13519195  0.54577527  0.17964059     0.06600
H495        H  0.49772482  0.56904610  0.09441234     0.06600
N496        N  0.44326501  0.52503811  0.25957494    -0.26300
N497        N  0.47033623  0.95307446  0.13420761    -0.26000
N498        N  0.07177710  0.53208461  0.26147080     0.01100
C499        C  0.44651950  0.89484614  0.29239782     0.42500
C500        C  0.09369621  0.91538399  0.17358743    -0.07200
N501        N  0.47834137  0.53061076  0.13978917    -0.26000
H502        H  0.96786393  0.93376409  0.07090257     0.06600
N503        N  0.47307018  0.91558144  0.30863823    -0.47200
H504        H  0.11428088  0.90685988  0.19547287     0.06600
C505        C  0.10737001  0.55326624  0.11723761     0.42300
C506        C  0.06929813  0.93603636  0.32845427    -0.06700
Co507      Co  0.07738168  0.98969800  0.21778816     0.73800
N508        N  0.05104232  0.91581802  0.12254866    -0.46900
C509        C  0.41798821  0.55452928  0.31134242     0.42600
N510        N  0.08970389  0.56328803  0.26231283    -0.46900
Co511      Co  0.01495737  0.98848818  0.13772634     0.73900
C512        C  0.47837394  0.56155489  0.11816259    -0.07200
C513        C  0.43020266  0.91477108  0.25793297    -0.06800
N514        N  0.04533348  0.53115834  0.28938456    -0.26300
N515        N  0.41652684  0.93403972  0.15474262    -0.47100
H516        H  0.38961577  0.54647749  0.24923722     0.06600
C517        C  0.11105419  0.54437056  0.16050911    -0.07200
Cl518      Cl  0.01222072  0.98882911  0.21482525    -0.50200
C519        C  0.07692192  0.89504797  0.13982820     0.42300
H520        H  0.02504711  0.56978524  0.33407647     0.06500
N521        N  0.07511808  0.53946610  0.10404727    -0.46900
C522        C  0.13291382  0.81468089  0.12410162     0.79900
N523        N  0.11980104  0.84634795  0.13861911    -0.78400
C524        C  0.08764491  0.85932684  0.12547151     0.82400
N525        N  0.06750794  0.84008823  0.09780059    -0.78300
C526        C  0.07998616  0.80742242  0.08373717     0.82500
N527        N  0.11322640  0.79498902  0.09629502    -0.80000
C528        C  0.38759239  0.56860444  0.33601571     0.79900
N529        N  0.37398854  0.60109538  0.32414750    -0.78400
C530        C  0.34076111  0.61246362  0.33645701     0.82400
N531        N  0.31953816  0.58981836  0.35986354    -0.78300
C532        C  0.33246027  0.55639596  0.37171870     0.82500
N533        N  0.36659669  0.54592818  0.35947741    -0.80000
C534        C  0.07944711  0.67220720  0.34464946     0.79900
N535        N  0.11246140  0.68382330  0.33087260    -0.78400
C536        C  0.13120188  0.66324585  0.30319615     0.82400
N537        N  0.11749157  0.63136831  0.28996523    -0.78300
C538        C  0.08537889  0.61931108  0.30437510     0.82500
N539        N  0.06620945  0.63949806  0.33198836    -0.80000
C540        C  0.19375489  0.55596781  0.05776234     0.79900
N541        N  0.15991896  0.54470593  0.07030867    -0.78400
C542        C  0.13791074  0.56744762  0.09257429     0.82400
N543        N  0.15031532  0.60084097  0.10310877    -0.78300
C544        C  0.18320963  0.61301686  0.09044633     0.82500
N545        N  0.20529710  0.59030338  0.06811214    -0.80000
C546        C  0.35439609  0.80183548  0.29724909     0.42200
N547        N  0.30419767  0.79789572  0.26376524     0.01100
C548        C  0.18737056  0.65638604  0.25550537    -0.06800
H549        H  0.31725964  0.61407083  0.24986793     0.06600
C550        C  0.33468535  0.70368439  0.11858796    -0.07100
Co551      Co  0.26087572  0.73468800  0.29219808     0.74200
N552        N  0.29741151  0.66839837  0.25977033    -0.26300
Co553      Co  0.26176239  0.67212465  0.21153562     0.74100
C554        C  0.35530955  0.67396741  0.13611503     0.42300
N555        N  0.29772598  0.78455102  0.13921750     0.00700
N556        N  0.30447521  0.67691788  0.16790649     0.00800
N557        N  0.18805626  0.69893384  0.30667940    -0.47200
H558        H  0.34105122  0.75221360  0.33780558     0.06600
N559        N  0.29609181  0.68984777  0.29234079     0.01100
N560        N  0.22555221  0.67105445  0.16333095     0.00800
C561        C  0.19812689  0.64432480  0.11326085     0.42400
N562        N  0.29890607  0.80588336  0.17184266    -0.25800
C563        C  0.20688194  0.79377223  0.32821275    -0.06700
N564        N  0.33463475  0.81714269  0.26640946    -0.46900
N565        N  0.20897299  0.64057977  0.15257958    -0.47100
C566        C  0.19405877  0.82955363  0.31375880     0.42200
N567        N  0.21870344  0.69858326  0.28535103     0.01100
N568        N  0.22000119  0.80116184  0.17425654    -0.25800
N569        N  0.30337914  0.77113974  0.29128196    -0.26300
N570        N  0.21959115  0.77673721  0.14397674     0.00700
H571        H  0.18047869  0.84095724  0.19409087     0.06600
H572        H  0.20950498  0.69252380  0.06927886     0.06600
N573        N  0.21903782  0.67426514  0.25495545    -0.26300
N574        N  0.30382986  0.70356373  0.14024198    -0.26000
N575        N  0.22484542  0.80362196  0.26575287     0.01100
C576        C  0.32489851  0.64214948  0.31213931     0.42500
C577        C  0.31928135  0.83502587  0.16368098    -0.07200
N578        N  0.22662546  0.69528746  0.13339821    -0.26000
H579        H  0.34214363  0.72313303  0.09492082     0.06600
N580        N  0.31172481  0.67461672  0.32527150    -0.47200
H581        H  0.32118636  0.85906536  0.18293765     0.06600
C582        C  0.16881066  0.80372028  0.13827748     0.42300
C583        C  0.33387884  0.77148199  0.31383651    -0.06700
Co584      Co  0.26213381  0.80269273  0.21887149     0.73800
N585        N  0.31530778  0.79902458  0.10716861    -0.46900
C586        C  0.16720105  0.67317687  0.28932550     0.42600
N587        N  0.20675602  0.83354315  0.27521223    -0.46900
Co588      Co  0.26175558  0.74019939  0.13823627     0.73900
C589        C  0.20980046  0.68080284  0.09995926    -0.07200
C590        C  0.31586677  0.63823629  0.26897619    -0.06800
N591        N  0.22555948  0.77963712  0.29591031    -0.26300
N592        N  0.33530348  0.65824041  0.16640884    -0.47100
H593        H  0.17876164  0.63585944  0.23358196     0.06600
C594        C  0.18886588  0.81995637  0.17263960    -0.07200
Cl595      Cl  0.26165757  0.73740423  0.21520829    -0.50200
C596        C  0.33018451  0.83049969  0.12113474     0.42300
H597        H  0.20541318  0.78209898  0.35887520     0.06500
N598        N  0.18934042  0.77720590  0.12174405    -0.46900
N599        N  0.26825225  0.98019348  0.54107645    -0.36900
N600        N  0.22568848  0.94360770  0.47645137    -0.57400
N601        N  0.26536982  0.98414803  0.41229756    -0.36900
N602        N  0.30567069  0.52303436  0.47739905    -0.57400
C603        C  0.24203170  0.96412527  0.56424371     0.26700
C604        C  0.28431914  0.50605133  0.56478098     0.26700
C605        C  0.23981068  0.96713521  0.38851673     0.26700
C606        C  0.28255507  0.50996010  0.38904234     0.26700
C607        C  0.21403224  0.92466213  0.50986726     0.35300
C608        C  0.21247326  0.92608933  0.44282001     0.35300
C609        C  0.32434760  0.53439576  0.51114070     0.35300
C610        C  0.32322058  0.53681567  0.44406954     0.35300
C611        C  0.24185625  0.97954454  0.60339585    -0.22200
C612        C  0.26853289  0.00597624  0.60373895    -0.22200
C613        C  0.24119154  0.98210063  0.34913946    -0.22200
C614        C  0.26795784  0.00892720  0.34946923    -0.22200
C615        C  0.19310343  0.89521639  0.49747200    -0.23200
C616        C  0.19200518  0.89614200  0.45522715    -0.23200
C617        C  0.35370866  0.55568546  0.49922422    -0.23200
C618        C  0.35294165  0.55734350  0.45697014    -0.23200
C619        C  0.21921640  0.93505041  0.55154620    -0.18600
C620        C  0.31362583  0.52881794  0.55269082    -0.18600
C621        C  0.31179075  0.53341743  0.40226957    -0.18600
C622        C  0.21627109  0.93775588  0.40116662    -0.18600
H623        H  0.22429699  0.97253177  0.62907948     0.14300
H624        H  0.27545235  0.52321484  0.62973743     0.14300
H625        H  0.22470307  0.97442781  0.32279658     0.14300
H626        H  0.27584754  0.52568085  0.32341614     0.14300
H627        H  0.17927981  0.87552352  0.51683872     0.12600
H628        H  0.17710083  0.87713963  0.43603987     0.12600
H629        H  0.37317746  0.56947146  0.51890770     0.12600
H630        H  0.37186499  0.57264405  0.43808014     0.12600
H631        H  0.27592861  0.97272578  0.51141769     0.25900
H632        H  0.27175517  0.97749533  0.44248785     0.25900
N633        N  0.01013686  0.74179248  0.04065752    -0.36900
N634        N  0.47345007  0.69795664  0.97678321    -0.57400
N635        N  0.01517816  0.73610855  0.91226856    -0.36900
N636        N  0.05372108  0.77808116  0.97659411    -0.57400
C637        C  0.49227476  0.71753303  0.06492904     0.26700
C638        C  0.03443786  0.75977778  0.06476449     0.26700
C639        C  0.49695063  0.71148132  0.88840905     0.26700
C640        C  0.03980145  0.75420374  0.88829976     0.26700
C641        C  0.45535880  0.68555695  0.01043315     0.35300
C642        C  0.45709469  0.68296858  0.94335963     0.35300
C643        C  0.06624524  0.79640329  0.01002176     0.35300
C644        C  0.06857351  0.79424530  0.94301034     0.35300
C645        C  0.50475345  0.72084934  0.10523032    -0.22200
C646        C  0.03126623  0.74742555  0.10512892    -0.22200
C647        C  0.51017515  0.71415660  0.84832527    -0.22200
C648        C  0.03699556  0.74090149  0.84825792    -0.22200
C649        C  0.42753888  0.66231683  0.99833967    -0.23200
C650        C  0.42863992  0.66063072  0.95609193    -0.23200
C651        C  0.08941266  0.82417435  0.99766480    -0.23200
C652        C  0.09094850  0.82281009  0.95544403    -0.23200
C653        C  0.46464237  0.69285116  0.05214654    -0.18600
C654        C  0.05907515  0.78736497  0.05177203    -0.18600
C655        C  0.06386263  0.78304862  0.90128948    -0.18600
C656        C  0.46807290  0.68752227  0.90153076    -0.18600
H657        H  0.49584040  0.70555606  0.13200099     0.14300
H658        H  0.04662519  0.75644886  0.13180164     0.14300
H659        H  0.50128555  0.69860123  0.82174115     0.14300
H660        H  0.05252019  0.74969136  0.82161281     0.14300
H661        H  0.40869546  0.64755439  0.01790152     0.12600
H662        H  0.41072286  0.64426126  0.93707621     0.12600
H663        H  0.10420108  0.84315389  0.01703721     0.12600
H664        H  0.10724736  0.84065194  0.93625894     0.12600
H665        H  0.00521998  0.74657277  0.00969424     0.25900
H666        H  0.01020936  0.74121657  0.94307232     0.25900
N667        N  0.01502881  0.74105406  0.38987458    -0.36900
N668        N  0.47510513  0.77821438  0.45524932    -0.57400
N669        N  0.01731376  0.73803702  0.51903981    -0.36900
N670        N  0.05433984  0.69783285  0.45313681    -0.57400
C671        C  0.48929376  0.75804798  0.36680118     0.26700
C672        C  0.03145136  0.71600602  0.36555761     0.26700
C673        C  0.49344288  0.75639296  0.54367283     0.26700
C674        C  0.03579884  0.71314692  0.54237301     0.26700
C675        C  0.46167509  0.79660583  0.42221097     0.35300
C676        C  0.46287684  0.79571337  0.48935195     0.35300
C677        C  0.07123614  0.68555153  0.41865033     0.35300
C678        C  0.07227197  0.68313088  0.48573641     0.35300
C679        C  0.98983832  0.74400997  0.32699817    -0.22200
C680        C  0.01644575  0.71753918  0.32618316    -0.22200
C681        C  0.99735163  0.74338259  0.58375243    -0.22200
C682        C  0.02388206  0.71631498  0.58293476    -0.22200
C683        C  0.44056275  0.82561328  0.43536157    -0.23200
C684        C  0.44128730  0.82509967  0.47761374    -0.23200
C685        C  0.09971470  0.66257946  0.42940921    -0.23200
C686        C  0.10031489  0.66096687  0.47165316    -0.23200
C687        C  0.46618032  0.78664790  0.38024008    -0.18600
C688        C  0.06033506  0.69259551  0.37738790    -0.18600
C689        C  0.06337031  0.68813440  0.52811658    -0.18600
C690        C  0.46880890  0.78491039  0.53105536    -0.18600
H691        H  0.47287043  0.75200801  0.30116959     0.14300
H692        H  0.02383891  0.70125180  0.29956806     0.14300
H693        H  0.48258418  0.75240966  0.61084593     0.14300
H694        H  0.03322197  0.70066051  0.60924780     0.14300
H695        H  0.42570703  0.84494678  0.41652545     0.12600
H696        H  0.42700258  0.84415391  0.49733858     0.12600
H697        H  0.11794394  0.64797142  0.40897335     0.12600
H698        H  0.11926334  0.64501461  0.48982032     0.12600
H699        H  0.02226825  0.74719022  0.41998349     0.25900
H700        H  0.02129787  0.74302784  0.48797633     0.25900
N701        N  0.26344540  0.98014065  0.89007248    -0.36900
N702        N  0.22368512  0.52281004  0.95310566    -0.57400
N703        N  0.26166626  0.98362681  0.01850085    -0.36900
N704        N  0.30315677  0.94272787  0.95498578    -0.57400
C705        C  0.24751412  0.50578820  0.86607592     0.26700
C706        C  0.28977709  0.96376423  0.86724060     0.26700
C707        C  0.24475212  0.50996620  0.04131765     0.26700
C708        C  0.28715349  0.96683249  0.04245250     0.26700
C709        C  0.20562405  0.53347376  0.91872707     0.35300
C710        C  0.20461583  0.53581539  0.98575825     0.35300
C711        C  0.31508643  0.92332678  0.92201337     0.35300
C712        C  0.31374613  0.92425917  0.98906494     0.35300
C713        C  0.26348144  0.00529317  0.82717963    -0.22200
C714        C  0.29014596  0.97883315  0.82794055    -0.22200
C715        C  0.25960707  0.00960966  0.08075936    -0.22200
C716        C  0.28618373  0.98257440  0.08147721    -0.22200
C717        C  0.17509212  0.55360332  0.92958879    -0.23200
C718        C  0.17446895  0.55512315  0.97187216    -0.23200
C719        C  0.33355706  0.89253895  0.93513973    -0.23200
C720        C  0.33269571  0.89305026  0.97744131    -0.23200
C721        C  0.21784214  0.52835255  0.87762920    -0.18600
C722        C  0.31217691  0.93444622  0.88030801    -0.18600
C723        C  0.30980632  0.93660097  0.03042267    -0.18600
C724        C  0.21527259  0.53296793  0.02779108    -0.18600
H725        H  0.25649618  0.52207468  0.80082449     0.14300
H726        H  0.30758242  0.97134986  0.80232445     0.14300
H727        H  0.25187866  0.52679411  0.10650368     0.14300
H728        H  0.30263961  0.97510221  0.10792052     0.14300
H729        H  0.15567007  0.56665636  0.90921919     0.12600
H730        H  0.15439568  0.56952418  0.99013888     0.12600
H731        H  0.34693316  0.87216129  0.91629365     0.12600
H732        H  0.34549439  0.87301452  0.99722355     0.12600
H733        H  0.25534874  0.97305346  0.91967464     0.25900
H734        H  0.25498962  0.97605237  0.98863757     0.25900
C735        C  0.38835745  0.90775808  0.81032860     0.79900
N736        N  0.37589914  0.87592378  0.79516430    -0.78400
C737        C  0.34335022  0.86268138  0.80718364     0.82400
N738        N  0.32244582  0.88176849  0.83433886    -0.78300
C739        C  0.33427040  0.91446309  0.84906869     0.82500
N740        N  0.36765493  0.92719785  0.83749380    -0.80000
C741        C  0.39175366  0.65364564  0.83525122     0.79900
N742        N  0.41310830  0.67607737  0.85861646    -0.78400
C743        C  0.44717074  0.66517469  0.87066289     0.82400
N744        N  0.45960117  0.63158715  0.85883163    -0.78300
C745        C  0.43805938  0.60921478  0.83552884     0.82500
N746        N  0.40494894  0.62100228  0.82328495    -0.80000
C747        C  0.19895089  0.54931108  0.84508190     0.79900
N748        N  0.21208461  0.58232811  0.83306957    -0.78400
C749        C  0.19294799  0.60276790  0.80554478     0.82400
N750        N  0.16103945  0.59060622  0.79063072    -0.78300
C751        C  0.14748740  0.55845479  0.80320083     0.82500
N752        N  0.16615576  0.53768085  0.83072091    -0.80000
C753        C  0.09802529  0.85994739  0.83640847     0.79900
N754        N  0.13103203  0.84714350  0.82490282    -0.75200
C755        C  0.14281572  0.81392028  0.83713184     0.82400
N756        N  0.12011770  0.79199399  0.85954537    -0.78300
C757        C  0.08615163  0.80391477  0.87043513     0.82500
N758        N  0.07532265  0.83806473  0.85875670    -0.80000
C759        C  0.08488718  0.66507792  0.55802497     0.79900
N760        N  0.11851578  0.67646422  0.57105521    -0.78400
C761        C  0.14047674  0.65367646  0.59332498     0.82400
N762        N  0.12824888  0.62008458  0.60331368    -0.78300
C763        C  0.09558191  0.60776826  0.59005584     0.82500
N764        N  0.07355504  0.63052759  0.56773359    -0.80000
C765        C  0.34135021  0.60351346  0.62355199     0.79900
N766        N  0.32118081  0.58296825  0.59701109    -0.78400
C767        C  0.33344103  0.54967785  0.58489219     0.82400
N768        N  0.36646717  0.53785710  0.59822451    -0.78300
C769        C  0.38641474  0.55860430  0.62468582     0.82500
N770        N  0.37372370  0.59117743  0.63740507    -0.80000
C771        C  0.17388077  0.79858572  0.81458904     0.42200
N772        N  0.19993301  0.76892379  0.76592659     0.01100
C773        C  0.36511576  0.67767899  0.76790789    -0.06800
H774        H  0.36950135  0.81560683  0.73587498     0.06600
C775        C  0.32191957  0.78660005  0.60142486    -0.07100
Co776      Co  0.26928763  0.73364821  0.79197187     0.74200
N777        N  0.32981072  0.77586297  0.75571373    -0.26300
Co778      Co  0.33129098  0.73318811  0.71165000     0.74100
C779        C  0.35763094  0.79938289  0.61576269     0.42300
N780        N  0.22696954  0.77555162  0.64415732     0.00700
N781        N  0.33157924  0.76985934  0.66441084     0.00800
N782        N  0.32929618  0.68204308  0.82457906    -0.47200
H783        H  0.22203418  0.78824607  0.85895228     0.06600
N784        N  0.30546788  0.77615784  0.78603977     0.01100
N785        N  0.32638356  0.69068802  0.66744238     0.00800
C786        C  0.32980166  0.63985429  0.63546864     0.42400
N787        N  0.20270768  0.77526726  0.67457731    -0.25800
C788        C  0.23392774  0.65989079  0.81128116    -0.06700
N789        N  0.16972707  0.78625438  0.77594206    -0.46900
N790        N  0.34533847  0.66004252  0.66572924    -0.47100
C791        C  0.20454946  0.63892951  0.79354082     0.42200
N792        N  0.31413614  0.69830206  0.79199223     0.01100
N793        N  0.19698851  0.69628396  0.67031981    -0.25800
N794        N  0.22420903  0.76851901  0.79581024    -0.26300
N795        N  0.21828965  0.69771398  0.63768397     0.00700
H796        H  0.14292315  0.67576554  0.68047256     0.06600
H797        H  0.28036230  0.65262252  0.59447981     0.06600
N798        N  0.33532390  0.69694136  0.75926976    -0.26300
N799        N  0.30773446  0.76857807  0.63413148    -0.26000
N800        N  0.20658642  0.69007988  0.76224269     0.01100
C801        C  0.33236075  0.82708671  0.79182968     0.42500
C802        C  0.18508501  0.80713561  0.67407819    -0.07200
N803        N  0.29965682  0.69112151  0.63985006    -0.26000
H804        H  0.31036016  0.78748970  0.57068518     0.06600
N805        N  0.30597422  0.80634481  0.80835492    -0.47200
H806        H  0.16470070  0.81589763  0.69608172     0.06600
C807        C  0.17090777  0.66786354  0.61816078     0.42300
C808        C  0.21009756  0.78674225  0.82843003    -0.06700
Co809      Co  0.20094992  0.73245298  0.71829541     0.73800
N810        N  0.22749036  0.80627821  0.62284484    -0.46900
C811        C  0.36123925  0.66797055  0.81093208     0.42600
N812        N  0.18850692  0.65895159  0.76350622    -0.46900
Co813      Co  0.26307294  0.73328680  0.63793915     0.73900
C814        C  0.29975654  0.66021596  0.61814430    -0.07200
C815        C  0.34852507  0.80714282  0.75730679    -0.06800
N816        N  0.23321335  0.69100458  0.78994648    -0.26300
N817        N  0.36146703  0.78778816  0.65471444    -0.47100
H818        H  0.38913865  0.67609811  0.74860284     0.06600
C819        C  0.16703358  0.67729418  0.66130681    -0.07200
Cl820      Cl  0.26613939  0.73307993  0.71497860    -0.50200
C821        C  0.20191162  0.82738221  0.64021027     0.42300
H822        H  0.25355831  0.65250872  0.83477589     0.06500
N823        N  0.20305592  0.68181273  0.60488130    -0.46900
C824        C  0.38878251  0.81492961  0.59378405     0.79900
N825        N  0.41194803  0.79327156  0.57167507    -0.78400
C826        C  0.44625102  0.80519176  0.56214220     0.82400
N827        N  0.45694051  0.83905872  0.57494495    -0.78300
C828        C  0.43372530  0.86057211  0.59706732     0.82500
N829        N  0.40040465  0.84779661  0.60710990    -0.80000
C830        C  0.14503222  0.90704269  0.62298849     0.79900
N831        N  0.15834173  0.87552322  0.63773057    -0.78400
C832        C  0.19082909  0.86290263  0.62519741     0.82400
N833        N  0.21103297  0.88236013  0.59774803    -0.78300
C834        C  0.19829040  0.91486866  0.58338236     0.82500
N835        N  0.16479444  0.92695251  0.59546414    -0.80000
C836        C  0.42458244  0.91972090  0.79776311     0.42200
N837        N  0.47455628  0.92366781  0.76386726     0.01100
C838        C  0.09155663  0.56508170  0.75497308    -0.06800
H839        H  0.46148119  0.60729115  0.74910868     0.06600
C840        C  0.44307770  0.51762514  0.61930020    -0.07100
Co841      Co  0.01806327  0.48676071  0.79181617     0.74200
N842        N  0.48162827  0.55314209  0.75939582    -0.26300
Co843      Co  0.01701138  0.54923609  0.71108768     0.74100
C844        C  0.42271993  0.54745509  0.63692199     0.42300
N845        N  0.48007900  0.93701952  0.63926297     0.00700
N846        N  0.47393545  0.54459824  0.66792866     0.00800
N847        N  0.09095040  0.52237199  0.80597425    -0.47200
H848        H  0.43827047  0.96922140  0.83837834     0.06600
N849        N  0.48289337  0.53173616  0.79199396     0.01100
N850        N  0.05295742  0.54994401  0.66273118     0.00800
C851        C  0.08053129  0.57645777  0.61266940     0.42400
N852        N  0.47902232  0.91576159  0.67195041    -0.25800
C853        C  0.07139037  0.92742261  0.82790496    -0.06700
N854        N  0.44413577  0.90445864  0.76673294    -0.46900
N855        N  0.06992832  0.58019621  0.65205864    -0.47100
C856        C  0.08377218  0.89148247  0.81364505     0.42200
N857        N  0.06034156  0.52266819  0.78459460     0.01100
N858        N  0.05809599  0.92032382  0.67351612    -0.25800
N859        N  0.47555765  0.95039756  0.79139466    -0.26300
N860        N  0.05818326  0.94454390  0.64301405     0.00700
H861        H  0.09810128  0.88109936  0.69351500     0.06600
H862        H  0.06824974  0.52859971  0.56848024     0.06600
N863        N  0.05995885  0.54704723  0.75426637    -0.26300
N864        N  0.47420330  0.51784740  0.64041113    -0.26000
N865        N  0.05379067  0.91771724  0.76524280     0.01100
C866        C  0.45356588  0.57926773  0.81137136     0.42500
C867        C  0.45840252  0.88673803  0.66404093    -0.07200
N868        N  0.05139283  0.52586066  0.63269021    -0.26000
H869        H  0.43531180  0.49807385  0.59587410     0.06600
N870        N  0.46696754  0.54694868  0.82475490    -0.47200
H871        H  0.45649837  0.86274407  0.68337308     0.06600
C872        C  0.10907214  0.91783201  0.63711727     0.42300
C873        C  0.44525338  0.94999608  0.81429693    -0.06700
Co874      Co  0.01624473  0.91880663  0.71859989     0.73800
N875        N  0.46231869  0.92254861  0.60736413    -0.46900
C876        C  0.11173799  0.54826035  0.78878478     0.42600
N877        N  0.07140908  0.88756418  0.77494140    -0.46900
Co878      Co  0.01613019  0.98117805  0.63785254     0.73900
C879        C  0.06820161  0.54024717  0.59919753    -0.07200
C880        C  0.46295979  0.58320716  0.76834619    -0.06800
N881        N  0.05316226  0.94172516  0.79539288    -0.26300
N882        N  0.44311062  0.56332305  0.66679778    -0.47100
H883        H  0.10006224  0.58582937  0.73326351     0.06600
C884        C  0.08937290  0.90178492  0.67184681    -0.07200
Cl885      Cl  0.01686643  0.48400012  0.71485815    -0.50200
C886        C  0.44739008  0.89118296  0.62150166     0.42300
H887        H  0.07263116  0.93904458  0.85860300     0.06500
N888        N  0.08829039  0.94411723  0.62051520    -0.46900
C889        C  0.89048855  0.31398343  0.31009744     0.79900
N890        N  0.90288101  0.34606163  0.29551608    -0.78400
C891        C  0.93542391  0.35922120  0.30777251     0.82400
N892        N  0.95631988  0.33982921  0.33471344    -0.78300
C893        C  0.94445366  0.30693435  0.34892185     0.82500
N894        N  0.91115964  0.29429858  0.33701236    -0.80000
C895        C  0.88937278  0.40652928  0.09375523     0.79900
N896        N  0.87755938  0.37367202  0.10700904    -0.78400
C897        C  0.84425126  0.36096021  0.09667964     0.82400
N898        N  0.82129211  0.38253759  0.07434724    -0.78300
C899        C  0.83223762  0.41629566  0.06147124     0.82500
N900        N  0.86646097  0.42817937  0.07131352    -0.80000
C901        C  0.68029724  0.36136903  0.33648186     0.79900
N902        N  0.64761903  0.37490965  0.32476293    -0.78400
C903        C  0.63656113  0.40845368  0.33680889     0.82400
N904        N  0.65970029  0.42991948  0.35928901    -0.78300
C905        C  0.69337316  0.41724926  0.37039475     0.82500
N906        N  0.70342198  0.38282271  0.35881756    -0.80000
C907        C  0.93711944  0.11846800  0.12364443     0.79900
N908        N  0.95719293  0.13888936  0.09687000    -0.78400
C909        C  0.94469555  0.17196930  0.08425586     0.82400
N910        N  0.91151814  0.18364952  0.09725591    -0.78300
C911        C  0.89167974  0.16300681  0.12393058     0.82500
N912        N  0.90463658  0.13071424  0.13720999    -0.80000
C913        C  0.60552207  0.42429692  0.31447884     0.42200
N914        N  0.57890828  0.45332351  0.26562561     0.01100
C915        C  0.91372458  0.04465551  0.26837743    -0.06800
H916        H  0.90905329  0.40631846  0.23671797     0.06600
C917        C  0.95622936  0.43483364  0.10160041    -0.07100
Co918      Co  0.50951923  0.48841325  0.29188682     0.74200
N919        N  0.94892449  0.44602437  0.25608477    -0.26300
Co920      Co  0.94703978  0.48870573  0.21188906     0.74100
C921        C  0.92047543  0.42212195  0.11589432     0.42300
N922        N  0.55131267  0.44649772  0.14388929     0.00700
N923        N  0.94643121  0.45198829  0.16444991     0.00800
N924        N  0.94984599  0.04014638  0.32477208    -0.47200
H925        H  0.55757835  0.43476953  0.35909978     0.06600
N926        N  0.97346221  0.44574608  0.28623407     0.01100
N927        N  0.95182935  0.03122805  0.16764610     0.00800
C928        C  0.94872594  0.08220716  0.13587190     0.42400
N929        N  0.57569357  0.44699039  0.17418764    -0.25800
C930        C  0.54455843  0.06236636  0.31046869    -0.06700
N931        N  0.60929380  0.43623783  0.27559571    -0.46900
N932        N  0.93319294  0.06209084  0.16622201    -0.47100
C933        C  0.57368602  0.08333959  0.29227378     0.42200
N934        N  0.96463173  0.02363703  0.29213881     0.01100
N935        N  0.58096477  0.02572257  0.16971478    -0.25800
N936        N  0.55482666  0.45382741  0.29571072    -0.26300
N937        N  0.55968884  0.02408326  0.13706846     0.00700
H938        H  0.63519202  0.04577644  0.17964036     0.06600
H939        H  0.99772399  0.06904682  0.09441219     0.06600
N940        N  0.94326485  0.02503913  0.25957521    -0.26300
N941        N  0.97033615  0.45307367  0.13420725    -0.26000
N942        N  0.57177724  0.03208520  0.26147110     0.01100
C943        C  0.94652036  0.39484489  0.29239757     0.42500
C944        C  0.59369619  0.41538304  0.17358703    -0.07200
N945        N  0.97834093  0.03061156  0.13978930    -0.26000
H946        H  0.46786373  0.43376376  0.07090178     0.06600
N947        N  0.97307073  0.41558049  0.30863816    -0.47200
H948        H  0.61428090  0.40685882  0.19547244     0.06600
C949        C  0.60736977  0.05326748  0.11723755     0.42300
C950        C  0.56929816  0.43603629  0.32845466    -0.06700
Co951      Co  0.57738171  0.48969697  0.21778813     0.73800
N952        N  0.55104234  0.41581723  0.12254824    -0.46900
C953        C  0.91798737  0.05452921  0.31134303     0.42600
N954        N  0.58970426  0.06328845  0.26231347    -0.46900
Co955      Co  0.51495755  0.48848722  0.13772616     0.73900
C956        C  0.97837325  0.06155558  0.11816255    -0.07200
C957        C  0.93020350  0.41476974  0.25793262    -0.06800
N958        N  0.54533368  0.03115879  0.28938494    -0.26300
N959        N  0.91652661  0.43403919  0.15474203    -0.47100
H960        H  0.88961527  0.04647783  0.24923770     0.06600
C961        C  0.61105415  0.04437170  0.16050905    -0.07200
Cl962      Cl  0.51222082  0.48882811  0.21482508    -0.50200
C963        C  0.57692194  0.39504721  0.13982769     0.42300
H964        H  0.52504775  0.06978528  0.33407751     0.06500
N965        N  0.57511780  0.03946724  0.10404745    -0.46900
C966        C  0.63291343  0.31467997  0.12410284     0.79900
N967        N  0.61980064  0.34634714  0.13861973    -0.78400
C968        C  0.58764490  0.35932611  0.12547119     0.82400
N969        N  0.56750833  0.34008745  0.09779993    -0.78300
C970        C  0.57998674  0.30742151  0.08373709     0.82500
N971        N  0.61322657  0.29498802  0.09629592    -0.80000
C972        C  0.88759131  0.06860420  0.33601609     0.79900
N973        N  0.87398740  0.10109512  0.32414786    -0.78400
C974        C  0.84075980  0.11246317  0.33645702     0.82400
N975        N  0.81953676  0.08981777  0.35986323    -0.78300
C976        C  0.83245893  0.05639542  0.37171833     0.82500
N977        N  0.86659548  0.04592779  0.35947738    -0.80000
C978        C  0.57944731  0.17220728  0.34465014     0.79900
N979        N  0.61246093  0.18382421  0.33087206    -0.78400
C980        C  0.63120121  0.16324710  0.30319512     0.82400
N981        N  0.61749137  0.13136913  0.28996491    -0.78300
C982        C  0.58537939  0.11931117  0.30437603     0.82500
N983        N  0.56621019  0.13949775  0.33198979    -0.80000
C984        C  0.69375442  0.05596833  0.05776143     0.79900
N985        N  0.65991857  0.04470660  0.07030825    -0.78400
C986        C  0.63791051  0.06744854  0.09257385     0.82400
N987        N  0.65031524  0.10084194  0.10310782    -0.78300
C988        C  0.68320957  0.11301762  0.09044510     0.82500
N989        N  0.70529682  0.09030391  0.06811092    -0.80000
C990        C  0.85439654  0.30183462  0.29724854     0.42200
N991        N  0.80419780  0.29789560  0.26376515     0.01100
C992        C  0.68736944  0.15638764  0.25550359    -0.06800
H993        H  0.81725840  0.11407035  0.24986797     0.06600
C994        C  0.83468571  0.20368581  0.11858847    -0.07100
Co995      Co  0.76087552  0.23468807  0.29219795     0.74200
N996        N  0.79741091  0.16839822  0.25977008    -0.26300
Co997      Co  0.76176213  0.17212496  0.21153513     0.74100
C998        C  0.85531008  0.17396906  0.13611586     0.42300
N999        N  0.79772529  0.28455138  0.13921753     0.00700
N1000       N  0.80447521  0.17691859  0.16790633     0.00800
N1001       N  0.68805562  0.19893487  0.30667822    -0.47200
H1002       H  0.84105140  0.25221273  0.33780488     0.06600
N1003       N  0.79609127  0.18984762  0.29234055     0.01100
N1004       N  0.72555224  0.17105471  0.16333019     0.00800
C1005       C  0.69812718  0.14432529  0.11325975     0.42400
N1006       N  0.79890552  0.30588372  0.17184265    -0.25800
C1007       C  0.70688195  0.29377255  0.32821309    -0.06700
N1008       N  0.83463515  0.31714221  0.26640918    -0.46900
N1009       N  0.70897331  0.14057998  0.15257846    -0.47100
C1010       C  0.69405899  0.32955410  0.31375934     0.42200
N1011       N  0.71870308  0.19858367  0.28535043     0.01100
N1012       N  0.72000074  0.30116187  0.17425730    -0.25800
N1013       N  0.80337920  0.27113951  0.29128176    -0.26300
N1014       N  0.71959072  0.27673729  0.14397744     0.00700
H1015       H  0.68047780  0.34095659  0.19409241     0.06600
H1016       H  0.70950479  0.19252489  0.06927839     0.06600
N1017       N  0.71903728  0.17426577  0.25495457    -0.26300
N1018       N  0.80382983  0.20356451  0.14024189    -0.26000
N1019       N  0.72484552  0.30362238  0.26575334     0.01100
C1020       C  0.82489724  0.14214898  0.31213929     0.42500
C1021       C  0.81928093  0.33502609  0.16368084    -0.07200
N1022       N  0.72662529  0.19528796  0.13339775    -0.26000
H1023       H  0.84214415  0.22313472  0.09492172     0.06600
N1024       N  0.81172390  0.17461638  0.32527137    -0.47200
H1025       H  0.82118616  0.35906564  0.18293740     0.06600
C1026       C  0.66880991  0.30371952  0.13827905     0.42300
C1027       C  0.83387907  0.27148130  0.31383600    -0.06700
Co1028     Co  0.76213364  0.30269299  0.21887177     0.73800
N1029       N  0.81530715  0.29902470  0.10716859    -0.46900
C1030       C  0.66719992  0.17317873  0.28932354     0.42600
N1031       N  0.70675625  0.33354365  0.27521280    -0.46900
Co1032     Co  0.76175522  0.24019983  0.13823628     0.73900
C1033       C  0.70980035  0.18080360  0.09995860    -0.07200
C1034       C  0.81586570  0.13823587  0.26897613    -0.06800
N1035       N  0.72555949  0.27963744  0.29591061    -0.26300
N1036       N  0.83530377  0.15824163  0.16640919    -0.47100
H1037       H  0.67876014  0.13586162  0.23357970     0.06600
C1038       C  0.68886513  0.31995592  0.17264094    -0.07200
Cl1039     Cl  0.76165733  0.23740450  0.21520824    -0.50200
C1040       C  0.83018416  0.33049963  0.12113466     0.42300
H1041       H  0.70541303  0.28209915  0.35887549     0.06500
N1042       N  0.68933981  0.27720554  0.12174518    -0.46900
N1043       N  0.76825158  0.48019388  0.54107718    -0.36900
N1044       N  0.72568798  0.44360895  0.47645152    -0.57400
N1045       N  0.76537078  0.48414814  0.41229729    -0.36900
N1046       N  0.80567159  0.02303297  0.47739871    -0.57400
C1047       C  0.74203141  0.46412518  0.56424453     0.26700
C1048       C  0.78431961  0.00605104  0.56477993     0.26700
C1049       C  0.73981070  0.46713642  0.38851675     0.26700
C1050       C  0.78255405  0.00995961  0.38904232     0.26700
C1051       C  0.71403137  0.42466332  0.50986728     0.35300
C1052       C  0.71247316  0.42609050  0.44281994     0.35300
C1053       C  0.82434850  0.03439489  0.51114003     0.35300
C1054       C  0.82322033  0.03681520  0.44406903     0.35300
C1055       C  0.74185675  0.47954351  0.60339714    -0.22200
C1056       C  0.76853332  0.50597522  0.60374028    -0.22200
C1057       C  0.74119028  0.48210338  0.34914013    -0.22200
C1058       C  0.76795674  0.50892984  0.34947007    -0.22200
C1059       C  0.69310270  0.39521771  0.49747170    -0.23200
C1060       C  0.69200492  0.39614328  0.45522692    -0.23200
C1061       C  0.85370865  0.05568573  0.49922324    -0.23200
C1062       C  0.85294087  0.05734406  0.45696921    -0.23200
C1063       C  0.71921562  0.43505091  0.55154652    -0.18600
C1064       C  0.81362677  0.02881719  0.55269006    -0.18600
C1065       C  0.81178972  0.03341703  0.40226936    -0.18600
C1066       C  0.71627130  0.43775690  0.40116649    -0.18600
H1067       H  0.72429797  0.47253017  0.62908103     0.14300
H1068       H  0.77545132  0.02321641  0.62973540     0.14300
H1069       H  0.72470068  0.47443189  0.32279769     0.14300
H1070       H  0.77584800  0.02567848  0.32341537     0.14300
H1071       H  0.67927900  0.37552471  0.51683827     0.12600
H1072       H  0.67710072  0.37714084  0.43603952     0.12600
H1073       H  0.87317698  0.06947269  0.51890651     0.12600
H1074       H  0.87186309  0.07264578  0.43807897     0.12600
H1075       H  0.77592740  0.47272692  0.51141803     0.25900
H1076       H  0.77175720  0.47749404  0.44248697     0.25900
N1077       N  0.51013906  0.24179019  0.04065789    -0.36900
N1078       N  0.97344939  0.19795674  0.97678386    -0.57400
N1079       N  0.51517508  0.23611017  0.91226871    -0.36900
N1080       N  0.55372058  0.27808082  0.97659411    -0.57400
C1081       C  0.99227666  0.21753161  0.06492959     0.26700
C1082       C  0.53443993  0.25977574  0.06476470     0.26700
C1083       C  0.99694845  0.21148194  0.88840982     0.26700
C1084       C  0.53979948  0.25420408  0.88830007     0.26700
C1085       C  0.95535873  0.18555701  0.01043416     0.35300
C1086       C  0.95709289  0.18296937  0.94336059     0.35300
C1087       C  0.56624535  0.29640261  0.01002175     0.35300
C1088       C  0.56857212  0.29424554  0.94301024     0.35300
C1089       C  0.00475524  0.22084821  0.10523091    -0.22200
C1090       C  0.53126845  0.24742363  0.10512921    -0.22200
C1091       C  0.01017406  0.21415578  0.84832640    -0.22200
C1092       C  0.53699471  0.24090032  0.84825881    -0.22200
C1093       C  0.92753813  0.16231748  0.99834120    -0.23200
C1094       C  0.92863802  0.16063185  0.95609337    -0.23200
C1095       C  0.58941228  0.32417408  0.99766471    -0.23200
C1096       C  0.59094714  0.32281037  0.95544384    -0.23200
C1097       C  0.96464326  0.19285084  0.05214734    -0.18600
C1098       C  0.55907623  0.28736361  0.05177206    -0.18600
C1099       C  0.56386093  0.28304888  0.90128946    -0.18600
C1100       C  0.96807081  0.18752284  0.90153165    -0.18600
H1101       H  0.99584163  0.20555560  0.13200183     0.14300
H1102       H  0.54662713  0.25644736  0.13180199     0.14300
H1103       H  0.00128520  0.19859932  0.82174278     0.14300
H1104       H  0.55252042  0.24968897  0.82161394     0.14300
H1105       H  0.90869497  0.14755510  0.01790346     0.12600
H1106       H  0.91072027  0.14426290  0.93707798     0.12600
H1107       H  0.60420104  0.34315335  0.01703701     0.12600
H1108       H  0.60724553  0.34065255  0.93625859     0.12600
H1109       H  0.50522198  0.24657038  0.00969471     0.25900
H1110       H  0.51020490  0.24121985  0.94307187     0.25900
N1111       N  0.51502823  0.24105290  0.38987532    -0.36900
N1112       N  0.97510628  0.27821483  0.45525022    -0.57400
N1113       N  0.51731776  0.23804052  0.51904067    -0.36900
N1114       N  0.55434139  0.19783417  0.45313737    -0.57400
C1115       C  0.98929248  0.25804644  0.36680241     0.26700
C1116       C  0.53145042  0.21600454  0.36555871     0.26700
C1117       C  0.99344370  0.25639302  0.54367298     0.26700
C1118       C  0.53579949  0.21314724  0.54237274     0.26700
C1119       C  0.96167629  0.29660631  0.42221185     0.35300
C1120       C  0.96287954  0.29571502  0.48935276     0.35300
C1121       C  0.57123761  0.18555280  0.41865084     0.35300
C1122       C  0.57227470  0.18313345  0.48573680     0.35300
C1123       C  0.48983583  0.24400692  0.32699994    -0.22200
C1124       C  0.51644359  0.21753647  0.32618482    -0.22200
C1125       C  0.49734726  0.24337780  0.58375080    -0.22200
C1126       C  0.52387773  0.21631028  0.58293308    -0.22200
C1127       C  0.94056552  0.32561496  0.43536239    -0.23200
C1128       C  0.94129107  0.32510211  0.47761456    -0.23200
C1129       C  0.59971721  0.16258191  0.42940958    -0.23200
C1130       C  0.60031824  0.16097013  0.47165360    -0.23200
C1131       C  0.96617992  0.28664711  0.38024115    -0.18600
C1132       C  0.56033529  0.19259541  0.37738862    -0.18600
C1133       C  0.56337217  0.18813605  0.52811674    -0.18600
C1134       C  0.96881066  0.28491134  0.53105599    -0.18600
H1135       H  0.97286777  0.25200517  0.30117143     0.14300
H1136       H  0.52383643  0.20124874  0.29956985     0.14300
H1137       H  0.98257856  0.25240302  0.61084423     0.14300
H1138       H  0.53321405  0.20065223  0.60924501     0.14300
H1139       H  0.92571002  0.34494866  0.41652632     0.12600
H1140       H  0.92700740  0.34415710  0.49733942     0.12600
H1141       H  0.61794637  0.14797394  0.40897359     0.12600
H1142       H  0.61926720  0.14501852  0.48982073     0.12600
H1143       H  0.52226907  0.24719050  0.41998343     0.25900
H1144       H  0.52130697  0.24303621  0.48797882     0.25900
N1145       N  0.76344561  0.48014166  0.89007326    -0.36900
N1146       N  0.72368555  0.02280999  0.95310505    -0.57400
N1147       N  0.76166685  0.48362715  0.01850047    -0.36900
N1148       N  0.80315547  0.44272649  0.95498536    -0.57400
C1149       C  0.74751357  0.00578681  0.86607498     0.26700
C1150       C  0.78977761  0.46376553  0.86724150     0.26700
C1151       C  0.74475189  0.00996678  0.04131747     0.26700
C1152       C  0.78715337  0.46683175  0.04245208     0.26700
C1153       C  0.70562430  0.03347320  0.91872632     0.35300
C1154       C  0.70461570  0.03581496  0.98575753     0.35300
C1155       C  0.81508375  0.42332489  0.92201282     0.35300
C1156       C  0.81374388  0.42425715  0.98906437     0.35300
C1157       C  0.76348356  0.50529624  0.82718158    -0.22200
C1158       C  0.79014783  0.47883597  0.82794223    -0.22200
C1159       C  0.75960658  0.50960809  0.08075989    -0.22200
C1160       C  0.78618293  0.48257250  0.08147738    -0.22200
C1161       C  0.67509190  0.05360206  0.92958790    -0.23200
C1162       C  0.67446844  0.05512197  0.97187123    -0.23200
C1163       C  0.83355237  0.39253574  0.93513888    -0.23200
C1164       C  0.83269133  0.39304692  0.97744057    -0.23200
C1165       C  0.71784210  0.02835174  0.87762836    -0.18600
C1166       C  0.81217574  0.43444583  0.88030789    -0.18600
C1167       C  0.80980567  0.43659986  0.03042193    -0.18600
C1168       C  0.71527220  0.03296802  0.02779049    -0.18600
H1169       H  0.75649452  0.02207198  0.80082295     0.14300
H1170       H  0.80758455  0.47135310  0.80232624     0.14300
H1171       H  0.75187947  0.02679702  0.10650254     0.14300
H1172       H  0.80263777  0.47509894  0.10792105     0.14300
H1173       H  0.65566946  0.06665438  0.90921816     0.12600
H1174       H  0.65439472  0.06952247  0.99013775     0.12600
H1175       H  0.84692735  0.37215748  0.91629254     0.12600
H1176       H  0.84548898  0.37301043  0.99722262     0.12600
H1177       H  0.75534763  0.47305311  0.91967457     0.25900
H1178       H  0.75499064  0.47605360  0.98863685     0.25900
C1179       C  0.88835678  0.40775824  0.81032895     0.79900
N1180       N  0.87589881  0.37592384  0.79516457    -0.78400
C1181       C  0.84334996  0.36268116  0.80718367     0.82400
N1182       N  0.82244523  0.38176818  0.83433868    -0.78300
C1183       C  0.83426937  0.41446299  0.84906842     0.82500
N1184       N  0.86765390  0.42719797  0.83749383    -0.80000
C1185       C  0.89175323  0.15364461  0.83525064     0.79900
N1186       N  0.91310697  0.17607660  0.85861657    -0.78400
C1187       C  0.94716925  0.16517438  0.87066400     0.82400
N1188       N  0.95960044  0.13158702  0.85883298    -0.78300
C1189       C  0.93805945  0.10921438  0.83552949     0.82500
N1190       N  0.90494916  0.12100148  0.82328465    -0.80000
C1191       C  0.69895096  0.04931054  0.84508105     0.79900
N1192       N  0.71208447  0.08232786  0.83306938    -0.78400
C1193       C  0.69294771  0.10276802  0.80554502     0.82400
N1194       N  0.66103923  0.09060645  0.79063077    -0.78300
C1195       C  0.64748742  0.05845474  0.80320020     0.82500
N1196       N  0.66615591  0.03768041  0.83071978    -0.80000
C1197       C  0.59802501  0.35994707  0.83640880     0.79900
N1198       N  0.63103208  0.34714316  0.82490421    -0.75200
C1199       C  0.64281551  0.31391988  0.83713363     0.82400
N1200       N  0.62011689  0.29199370  0.85954659    -0.78300
C1201       C  0.58615049  0.30391450  0.87043516     0.82500
N1202       N  0.57532184  0.33806441  0.85875627    -0.80000
C1203       C  0.58488815  0.16507900  0.55802507     0.79900
N1204       N  0.61851661  0.17646492  0.57105605    -0.78400
C1205       C  0.64047690  0.15367687  0.59332615     0.82400
N1206       N  0.62824855  0.12008511  0.60331447    -0.78300
C1207       C  0.59558168  0.10776916  0.59005585     0.82500
N1208       N  0.57355541  0.13052880  0.56773325    -0.80000
C1209       C  0.84135050  0.10351336  0.62355075     0.79900
N1210       N  0.82118127  0.08296786  0.59700997    -0.78400
C1211       C  0.83344173  0.04967744  0.58489132     0.82400
N1212       N  0.86646792  0.03785698  0.59822379    -0.78300
C1213       C  0.88641532  0.05860445  0.62468500     0.82500
N1214       N  0.87372407  0.09117758  0.63740394    -0.80000
C1215       C  0.67388063  0.29858496  0.81459095     0.42200
N1216       N  0.69993310  0.26892389  0.76592781     0.01100
C1217       C  0.86511553  0.17767770  0.76790713    -0.06800
H1218       H  0.86950153  0.31560651  0.73587509     0.06600
C1219       C  0.82191961  0.28659932  0.60142455    -0.07100
Co1220     Co  0.76928789  0.23364783  0.79197216     0.74200
N1221       N  0.82981111  0.27586241  0.75571385    -0.26300
Co1222     Co  0.83129117  0.23318760  0.71164978     0.74100
C1223       C  0.85763146  0.29938129  0.61576181     0.42300
N1224       N  0.72696959  0.27555192  0.64415815     0.00700
N1225       N  0.83157957  0.26985885  0.66441064     0.00800
N1226       N  0.82929603  0.18204190  0.82457837    -0.47200
H1227       H  0.72203443  0.28824516  0.85895374     0.06600
N1228       N  0.80546834  0.27615723  0.78604000     0.01100
N1229       N  0.82638348  0.19068767  0.66744185     0.00800
C1230       C  0.82980162  0.13985413  0.63546754     0.42400
N1231       N  0.70270776  0.27526760  0.67457816    -0.25800
C1232       C  0.73392750  0.15989081  0.81128180    -0.06700
N1233       N  0.66972703  0.28625410  0.77594375    -0.46900
N1234       N  0.84533855  0.16004229  0.66572813    -0.47100
C1235       C  0.70454897  0.13892980  0.79354161     0.42200
N1236       N  0.81413618  0.19830130  0.79199176     0.01100
N1237       N  0.69698859  0.19628428  0.67032077    -0.25800
N1238       N  0.72420924  0.26851888  0.79581135    -0.26300
N1239       N  0.71828957  0.19771446  0.63768480     0.00700
H1240       H  0.64292368  0.17576503  0.68047402     0.06600
H1241       H  0.78036174  0.15262241  0.59447943     0.06600
N1242       N  0.83532392  0.19694059  0.75926926    -0.26300
N1243       N  0.80773449  0.26857788  0.63413156    -0.26000
N1244       N  0.70658628  0.19008010  0.76224341     0.01100
C1245       C  0.83236105  0.32708618  0.79182996     0.42500
C1246       C  0.68508493  0.30713582  0.67407876    -0.07200
N1247       N  0.79965648  0.19112126  0.63984984    -0.26000
H1248       H  0.81035996  0.28748885  0.57068499     0.06600
N1249       N  0.80597461  0.30634415  0.80835519    -0.47200
H1250       H  0.66470048  0.31589781  0.69608222     0.06600
C1251       C  0.67090804  0.16786345  0.61816199     0.42300
C1252       C  0.71009771  0.28674165  0.82843150    -0.06700
Co1253     Co  0.70094996  0.23245329  0.71829630     0.73800
N1254       N  0.72749017  0.30627836  0.62284535    -0.46900
C1255       C  0.86123884  0.16796898  0.81093125     0.42600
N1256       N  0.68850651  0.15895198  0.76350701    -0.46900
Co1257     Co  0.76307282  0.23328695  0.63793961     0.73900
C1258       C  0.79975611  0.16021577  0.61814380    -0.07200
C1259       C  0.84852540  0.30714234  0.75730698    -0.06800
N1260       N  0.73321333  0.19100454  0.78994701    -0.26300
N1261       N  0.86146768  0.28778689  0.65471367    -0.47100
H1262       H  0.88913839  0.17609661  0.74860205     0.06600
C1263       C  0.66703392  0.17729403  0.66130807    -0.07200
Cl1264     Cl  0.76613949  0.23307993  0.71497897    -0.50200
C1265       C  0.70191136  0.32738232  0.64021064     0.42300
H1266       H  0.75355813  0.15250861  0.83477640     0.06500
N1267       N  0.70305588  0.18181308  0.60488226    -0.46900
C1268       C  0.88878265  0.31492871  0.59378321     0.79900
N1269       N  0.91194895  0.29327107  0.57167472    -0.78400
C1270       C  0.94625190  0.30519193  0.56214266     0.82400
N1271       N  0.95694053  0.33905904  0.57494578    -0.78300
C1272       C  0.93372457  0.36057204  0.59706758     0.82500
N1273       N  0.90040394  0.34779595  0.60710931    -0.80000
C1274       C  0.64503174  0.40704269  0.62298932     0.79900
N1275       N  0.65834146  0.37552328  0.63773129    -0.78400
C1276       C  0.69082869  0.36290269  0.62519771     0.82400
N1277       N  0.71103234  0.38236020  0.59774807    -0.78300
C1278       C  0.69828962  0.41486874  0.58338250     0.82500
N1279       N  0.66479374  0.42695252  0.59546470    -0.80000
C1280       C  0.92458188  0.41972097  0.79776397     0.42200
N1281       N  0.97455555  0.42366795  0.76386788     0.01100
C1282       C  0.59155645  0.06508221  0.75497297    -0.06800
H1283       H  0.96148139  0.10729127  0.74910936     0.06600
C1284       C  0.94307827  0.01762538  0.61929983    -0.07100
Co1285     Co  0.51806370  0.98676071  0.79181579     0.74200
N1286       N  0.98162841  0.05314208  0.75939597    -0.26300
Co1287     Co  0.51701127  0.04923637  0.71108766     0.74100
C1288       C  0.92272045  0.04745536  0.63692144     0.42300
N1289       N  0.98007823  0.43701938  0.63926331     0.00700
N1290       N  0.97393566  0.04459838  0.66792864     0.00800
N1291       N  0.59095064  0.02237198  0.80597362    -0.47200
H1292       H  0.93827012  0.46922143  0.83837930     0.06600
N1293       N  0.98289376  0.03173605  0.79199404     0.01100
N1294       N  0.55295707  0.04994473  0.66273094     0.00800
C1295       C  0.58053042  0.07645882  0.61266906     0.42400
N1296       N  0.97902112  0.41576162  0.67195086    -0.25800
C1297       C  0.57139022  0.42742238  0.82790522    -0.06700
N1298       N  0.94413510  0.40445875  0.76673373    -0.46900
N1299       N  0.56992760  0.08019713  0.65205836    -0.47100
C1300       C  0.58377225  0.39148231  0.81364518     0.42200
N1301       N  0.56034172  0.02266832  0.78459420     0.01100
N1302       N  0.55809513  0.42032336  0.67351662    -0.25800
N1303       N  0.97555705  0.45039769  0.79139528    -0.26300
N1304       N  0.55818245  0.44454337  0.64301449     0.00700
H1305       H  0.59810055  0.38109912  0.69351580     0.06600
H1306       H  0.56824931  0.02860062  0.56847990     0.06600
N1307       N  0.55995879  0.04704757  0.75426621    -0.26300
N1308       N  0.97420371  0.01784758  0.64041102    -0.26000
N1309       N  0.55378988  0.41771689  0.76524337     0.01100
C1310       C  0.95356676  0.07926770  0.81137202     0.42500
C1311       C  0.95840073  0.38673846  0.66404147    -0.07200
N1312       N  0.55139270  0.02586139  0.63268995    -0.26000
H1313       H  0.93531255  0.99807420  0.59587354     0.06600
N1314       N  0.96696830  0.04694852  0.82475526    -0.47200
H1315       H  0.95649609  0.36274460  0.68337378     0.06600
C1316       C  0.60907154  0.41783177  0.63711807     0.42300
C1317       C  0.94525290  0.44999616  0.81429781    -0.06700
Co1318     Co  0.51624381  0.41880640  0.71860045     0.73800
N1319       N  0.96231783  0.42254854  0.60736447    -0.46900
C1320       C  0.61173804  0.04826051  0.78878425     0.42600
N1321       N  0.57140856  0.38756390  0.77494180    -0.46900
Co1322     Co  0.51612961  0.48117764  0.63785282     0.73900
C1323       C  0.56820118  0.04024810  0.59919721    -0.07200
C1324       C  0.96296010  0.08320719  0.76834669    -0.06800
N1325       N  0.55316168  0.44172487  0.79539338    -0.26300
N1326       N  0.94311089  0.06332324  0.66679753    -0.47100
H1327       H  0.60006183  0.08583017  0.73326363     0.06600
C1328       C  0.58937216  0.40178456  0.67184752    -0.07200
Cl1329     Cl  0.51686697  0.98400037  0.71485784    -0.50200
C1330       C  0.94738846  0.39118328  0.62150208     0.42300
H1331       H  0.57263136  0.43904444  0.85860323     0.06500
N1332       N  0.58828970  0.44411685  0.62051587    -0.46900
C1333       C  0.89048807  0.81398391  0.31009985     0.79900
N1334       N  0.90288002  0.84606238  0.29551859    -0.78400
C1335       C  0.93542317  0.85922195  0.30777415     0.82400
N1336       N  0.95631990  0.83982970  0.33471411    -0.78300
C1337       C  0.94445424  0.80693458  0.34892244     0.82500
N1338       N  0.91115991  0.79429883  0.33701386    -0.80000
C1339       C  0.88937430  0.90652891  0.09375517     0.79900
N1340       N  0.87756125  0.87367154  0.10700904    -0.78400
C1341       C  0.84425297  0.86095966  0.09668043     0.82400
N1342       N  0.82129340  0.88253705  0.07434841    -0.78300
C1343       C  0.83223858  0.91629527  0.06147229     0.82500
N1344       N  0.86646203  0.92817901  0.07131402    -0.80000
C1345       C  0.68029740  0.86136896  0.33648121     0.79900
N1346       N  0.64761942  0.87490963  0.32476150    -0.78400
C1347       C  0.63656128  0.90845365  0.33680728     0.82400
N1348       N  0.65970008  0.92991943  0.35928785    -0.78300
C1349       C  0.69337271  0.91724920  0.37039435     0.82500
N1350       N  0.70342175  0.88282261  0.35881753    -0.80000
C1351       C  0.93712002  0.61846748  0.12364418     0.79900
N1352       N  0.95719267  0.63888915  0.09686915    -0.78400
C1353       C  0.94469414  0.67196862  0.08425475     0.82400
N1354       N  0.91151650  0.68364785  0.09725506    -0.78300
C1355       C  0.89167891  0.66300478  0.12393012     0.82500
N1356       N  0.90463683  0.63071281  0.13720988    -0.80000
C1357       C  0.60552218  0.92429689  0.31447727     0.42200
N1358       N  0.57890856  0.95332455  0.26562473     0.01100
C1359       C  0.91372545  0.54465529  0.26837666    -0.06800
H1360       H  0.90905219  0.90631923  0.23671934     0.06600
C1361       C  0.95623052  0.93483393  0.10160097    -0.07100
Co1362     Co  0.50951948  0.98841411  0.29188636     0.74200
N1363       N  0.94892405  0.94602485  0.25608537    -0.26300
Co1364     Co  0.94703943  0.98870624  0.21188952     0.74100
C1365       C  0.92047663  0.92212188  0.11589446     0.42300
N1366       N  0.55131238  0.94649839  0.14388892     0.00700
N1367       N  0.94643149  0.95198880  0.16445021     0.00800
N1368       N  0.94984704  0.54014650  0.32477118    -0.47200
H1369       H  0.55757833  0.93476868  0.35909828     0.06600
N1370       N  0.97346191  0.94574654  0.28623454     0.01100
N1371       N  0.95183017  0.53122764  0.16764585     0.00800
C1372       C  0.94872772  0.58220731  0.13587265     0.42400
N1373       N  0.57569350  0.94699139  0.17418702    -0.25800
C1374       C  0.54455758  0.56236613  0.31046873    -0.06700
N1375       N  0.60929408  0.93623871  0.27559454    -0.46900
N1376       N  0.93319436  0.56209080  0.16622233    -0.47100
C1377       C  0.57368553  0.58333919  0.29227415     0.42200
N1378       N  0.96463247  0.52363668  0.29213807     0.01100
N1379       N  0.58096499  0.52572158  0.16971571    -0.25800
N1380       N  0.55482682  0.95382791  0.29570973    -0.26300
N1381       N  0.55968900  0.52408254  0.13706940     0.00700
H1382       H  0.63519215  0.54577561  0.17964156     0.06600
H1383       H  0.99772552  0.56904661  0.09441265     0.06600
N1384       N  0.94326552  0.52503865  0.25957457    -0.26300
N1385       N  0.97033671  0.95307432  0.13420785    -0.26000
N1386       N  0.57177703  0.53208440  0.26147199     0.01100
C1387       C  0.94651946  0.89484568  0.29239887     0.42500
C1388       C  0.59369624  0.91538411  0.17358674    -0.07200
N1389       N  0.97834164  0.53061103  0.13978898    -0.26000
H1390       H  0.46786251  0.93376411  0.07090235     0.06600
N1391       N  0.97307018  0.91558114  0.30863896    -0.47200
H1392       H  0.61428109  0.90686019  0.19547210     0.06600
C1393       C  0.60736981  0.55326702  0.11723876     0.42300
C1394       C  0.56929824  0.93603606  0.32845320    -0.06700
Co1395     Co  0.57738174  0.98969799  0.21778727     0.73800
N1396       N  0.55104201  0.91581769  0.12254832    -0.46900
C1397       C  0.91798849  0.55452940  0.31134210     0.42600
N1398       N  0.58970407  0.56328766  0.26231436    -0.46900
Co1399     Co  0.51495725  0.98848803  0.13772575     0.73900
C1400       C  0.97837463  0.56155544  0.11816295    -0.07200
C1401       C  0.93020264  0.91477042  0.25793369    -0.06800
N1402       N  0.54533312  0.53115827  0.28938543    -0.26300
N1403       N  0.91652724  0.93403929  0.15474204    -0.47100
H1404       H  0.88961616  0.54647761  0.24923690     0.06600
C1405       C  0.61105435  0.54437082  0.16051016    -0.07200
Cl1406     Cl  0.51222085  0.98882912  0.21482466    -0.50200
C1407       C  0.57692178  0.89504787  0.13982790     0.42300
H1408       H  0.52504660  0.56978533  0.33407712     0.06500
N1409       N  0.57511784  0.53946690  0.10404858    -0.46900
C1410       C  0.63291555  0.81468258  0.12409962     0.79900
N1411       N  0.61980223  0.84634922  0.13861750    -0.78400
C1412       C  0.58764544  0.85932720  0.12547086     0.82400
N1413       N  0.56750834  0.84008814  0.09780052    -0.78300
C1414       C  0.57998709  0.80742275  0.08373660     0.82500
N1415       N  0.61322799  0.79499019  0.09629349    -0.80000
C1416       C  0.88759247  0.56860417  0.33601532     0.79900
N1417       N  0.87398832  0.60109500  0.32414719    -0.78400
C1418       C  0.84076084  0.61246294  0.33645690     0.82400
N1419       N  0.81953817  0.58981748  0.35986354    -0.78300
C1420       C  0.83246058  0.55639514  0.37171857     0.82500
N1421       N  0.86659704  0.54592768  0.35947703    -0.80000
C1422       C  0.57944655  0.67220794  0.34464873     0.79900
N1423       N  0.61246042  0.68382442  0.33087114    -0.78400
C1424       C  0.63120097  0.66324671  0.30319508     0.82400
N1425       N  0.61749114  0.63136860  0.28996526    -0.78300
C1426       C  0.58537885  0.61931102  0.30437596     0.82500
N1427       N  0.56620939  0.63949823  0.33198892    -0.80000
C1428       C  0.69375425  0.55596969  0.05776264     0.79900
N1429       N  0.65991870  0.54470725  0.07030957    -0.78400
C1430       C  0.63791014  0.56744877  0.09257505     0.82400
N1431       N  0.65031402  0.60084253  0.10310876    -0.78300
C1432       C  0.68320796  0.61301899  0.09044576     0.82500
N1433       N  0.70529572  0.59030572  0.06811165    -0.80000
C1434       C  0.85439616  0.80183474  0.29725088     0.42200
N1435       N  0.80419812  0.79789497  0.26376615     0.01100
C1436       C  0.68736939  0.65638689  0.25550421    -0.06800
H1437       H  0.81725905  0.61407010  0.24986790     0.06600
C1438       C  0.83468529  0.70368364  0.11858859    -0.07100
Co1439     Co  0.76087546  0.73468754  0.29219833     0.74200
N1440       N  0.79741063  0.66839757  0.25977046    -0.26300
Co1441     Co  0.76176172  0.67212447  0.21153557     0.74100
C1442       C  0.85530916  0.67396650  0.13611559     0.42300
N1443       N  0.79772735  0.78455044  0.13921845     0.00700
N1444       N  0.80447482  0.67691724  0.16790686     0.00800
N1445       N  0.68805545  0.69893432  0.30667871    -0.47200
H1446       H  0.84105068  0.75221277  0.33780711     0.06600
N1447       N  0.79609108  0.68984694  0.29234095     0.01100
N1448       N  0.72555163  0.67105524  0.16333063     0.00800
C1449       C  0.69812502  0.64432680  0.11326060     0.42400
N1450       N  0.79890743  0.80588284  0.17184356    -0.25800
C1451       C  0.70688222  0.79377240  0.32821292    -0.06700
N1452       N  0.83463515  0.81714196  0.26641098    -0.46900
N1453       N  0.70897140  0.64058116  0.15257916    -0.47100
C1454       C  0.69405951  0.82955397  0.31375904     0.42200
N1455       N  0.71870285  0.69858326  0.28535082     0.01100
N1456       N  0.72000235  0.80116277  0.17425622    -0.25800
N1457       N  0.80337928  0.77113889  0.29128275    -0.26300
N1458       N  0.71959234  0.77673811  0.14397642     0.00700
H1459       H  0.68048045  0.84095942  0.19408903     0.06600
H1460       H  0.70950415  0.69252579  0.06927894     0.06600
N1461       N  0.71903705  0.67426533  0.25495503    -0.26300
N1462       N  0.80382979  0.70356318  0.14024249    -0.26000
N1463       N  0.72484585  0.80362193  0.26575310     0.01100
C1464       C  0.82489790  0.64214870  0.31213931     0.42500
C1465       C  0.81928310  0.83502512  0.16368192    -0.07200
N1466       N  0.72662533  0.69528840  0.13339810    -0.26000
H1467       H  0.84214386  0.72313232  0.09492164     0.06600
N1468       N  0.81172419  0.67461589  0.32527158    -0.47200
H1469       H  0.82118814  0.85906470  0.18293844     0.06600
C1470       C  0.66881269  0.80372256  0.13827534     0.42300
C1471       C  0.83387871  0.77148110  0.31383784    -0.06700
Co1472     Co  0.76213462  0.80269263  0.21887197     0.73800
N1473       N  0.81530945  0.79902375  0.10716965    -0.46900
C1474       C  0.66719990  0.67317795  0.28932415     0.42600
N1475       N  0.70675675  0.83354331  0.27521247    -0.46900
Co1476     Co  0.76175618  0.74019954  0.13823660     0.73900
C1477       C  0.70979965  0.68080451  0.09995921    -0.07200
C1478       C  0.81586602  0.63823553  0.26897624    -0.06800
N1479       N  0.72555963  0.77963705  0.29591050    -0.26300
N1480       N  0.83530295  0.65823952  0.16640933    -0.47100
H1481       H  0.67876020  0.63586075  0.23358045     0.06600
C1482       C  0.68886757  0.81995821  0.17263814    -0.07200
Cl1483     Cl  0.76165764  0.73740411  0.21520856    -0.50200
C1484       C  0.83018646  0.83049875  0.12113570     0.42300
H1485       H  0.70541335  0.78209914  0.35887543     0.06500
N1486       N  0.68934214  0.77720754  0.12174281    -0.46900
N1487       N  0.76825513  0.98019091  0.54107687    -0.36900
N1488       N  0.72568878  0.94360759  0.47645130    -0.57400
N1489       N  0.76536829  0.98414988  0.41229787    -0.36900
N1490       N  0.80567001  0.52303436  0.47739862    -0.57400
C1491       C  0.74203459  0.96412267  0.56424412     0.26700
C1492       C  0.78431625  0.50605378  0.56478021     0.26700
C1493       C  0.73981049  0.96713585  0.38851634     0.26700
C1494       C  0.78255456  0.50995992  0.38904265     0.26700
C1495       C  0.71403204  0.92466214  0.50986699     0.35300
C1496       C  0.71247144  0.92609095  0.44281982     0.35300
C1497       C  0.82434730  0.53439492  0.51114032     0.35300
C1498       C  0.82322174  0.53681331  0.44406909     0.35300
C1499       C  0.74185964  0.97954134  0.60339655    -0.22200
C1500       C  0.76853637  0.00597287  0.60373980    -0.22200
C1501       C  0.74119326  0.98209954  0.34913830    -0.22200
C1502       C  0.76795951  0.00892618  0.34946825    -0.22200
C1503       C  0.69310076  0.89521822  0.49747154    -0.23200
C1504       C  0.69200134  0.89614498  0.45522680    -0.23200
C1505       C  0.85371046  0.55568173  0.49922383    -0.23200
C1506       C  0.85294447  0.55733872  0.45696967    -0.23200
C1507       C  0.71921803  0.93504894  0.55154615    -0.18600
C1508       C  0.81362407  0.52881903  0.55269029    -0.18600
C1509       C  0.81179129  0.53341616  0.40226935    -0.18600
C1510       C  0.71627028  0.93775708  0.40116635    -0.18600
H1511       H  0.72430027  0.97252864  0.62908012     0.14300
H1512       H  0.77544873  0.52321825  0.62973621     0.14300
H1513       H  0.72470614  0.97442554  0.32279480     0.14300
H1514       H  0.77584296  0.52568454  0.32341827     0.14300
H1515       H  0.67927631  0.87552581  0.51683814     0.12600
H1516       H  0.67709510  0.87714411  0.43603943     0.12600
H1517       H  0.87318008  0.56946659  0.51890735     0.12600
H1518       H  0.87186941  0.57263718  0.43807961     0.12600
H1519       H  0.77593095  0.97272368  0.51141776     0.25900
H1520       H  0.77175180  0.97749890  0.44248903     0.25900
N1521       N  0.51013805  0.74179221  0.04065780    -0.36900
N1522       N  0.97344905  0.69795622  0.97678335    -0.57400
N1523       N  0.51517657  0.73611105  0.91226757    -0.36900
N1524       N  0.55372037  0.77808212  0.97659365    -0.57400
C1525       C  0.99227344  0.71753331  0.06492873     0.26700
C1526       C  0.53443899  0.75977763  0.06476461     0.26700
C1527       C  0.99695003  0.71148093  0.88840935     0.26700
C1528       C  0.53980166  0.75420446  0.88829942     0.26700
C1529       C  0.95535820  0.68555596  0.01043316     0.35300
C1530       C  0.95709502  0.68296664  0.94335989     0.35300
C1531       C  0.56624395  0.79640469  0.01002137     0.35300
C1532       C  0.56857097  0.79424790  0.94300977     0.35300
C1533       C  0.00475205  0.72084960  0.10523002    -0.22200
C1534       C  0.53126752  0.74742544  0.10512907    -0.22200
C1535       C  0.01017165  0.71415912  0.84832465    -0.22200
C1536       C  0.53699886  0.74089926  0.84825855    -0.22200
C1537       C  0.92753967  0.66231413  0.99833977    -0.23200
C1538       C  0.92864132  0.66062732  0.95609209    -0.23200
C1539       C  0.58940897  0.82417768  0.99766430    -0.23200
C1540       C  0.59094396  0.82281417  0.95544349    -0.23200
C1541       C  0.96464120  0.69285117  0.05214637    -0.18600
C1542       C  0.55907576  0.78736513  0.05177180    -0.18600
C1543       C  0.56386147  0.78305050  0.90128895    -0.18600
C1544       C  0.96807305  0.68752099  0.90153114    -0.18600
H1545       H  0.99583894  0.70555625  0.13200061     0.14300
H1546       H  0.54662643  0.75644898  0.13180179     0.14300
H1547       H  0.00127986  0.69860593  0.82173981     0.14300
H1548       H  0.55252549  0.74968730  0.82161413     0.14300
H1549       H  0.90869682  0.64755097  0.01790168     0.12600
H1550       H  0.91072541  0.64425662  0.93707640     0.12600
H1551       H  0.60419644  0.84315800  0.01703661     0.12600
H1552       H  0.60724130  0.84065740  0.93625834     0.12600
H1553       H  0.50522115  0.74657237  0.00969450     0.25900
H1554       H  0.51020467  0.74122202  0.94307018     0.25900
N1555       N  0.51502855  0.74105507  0.38987328    -0.36900
N1556       N  0.97510678  0.77821488  0.45525084    -0.57400
N1557       N  0.51731118  0.73803506  0.51903844    -0.36900
N1558       N  0.55433871  0.69783254  0.45313588    -0.57400
C1559       C  0.98929343  0.75804652  0.36680286     0.26700
C1560       C  0.53145182  0.71600771  0.36555613     0.26700
C1561       C  0.99344320  0.75639273  0.54367367     0.26700
C1562       C  0.53579845  0.71314712  0.54237234     0.26700
C1563       C  0.96167750  0.79660671  0.42221231     0.35300
C1564       C  0.96287994  0.79571519  0.48935328     0.35300
C1565       C  0.57123477  0.68555104  0.41864939     0.35300
C1566       C  0.57226971  0.68312907  0.48573545     0.35300
C1567       C  0.48983993  0.74401262  0.32699595    -0.22200
C1568       C  0.51644747  0.71754199  0.32618106    -0.22200
C1569       C  0.49735474  0.74338626  0.58375259    -0.22200
C1570       C  0.52388512  0.71631862  0.58293503    -0.22200
C1571       C  0.94056718  0.82561573  0.43536270    -0.23200
C1572       C  0.94129221  0.82510272  0.47761485    -0.23200
C1573       C  0.59971219  0.66257744  0.42940820    -0.23200
C1574       C  0.60031179  0.66096397  0.47165218    -0.23200
C1575       C  0.96618104  0.78664744  0.38024159    -0.18600
C1576       C  0.56033467  0.69259639  0.37738692    -0.18600
C1577       C  0.56336873  0.68813336  0.52811572    -0.18600
C1578       C  0.96881043  0.78491136  0.53105661    -0.18600
H1579       H  0.97286820  0.75200477  0.30117210     0.14300
H1580       H  0.52384143  0.70125530  0.29956571     0.14300
H1581       H  0.98257870  0.75240367  0.61084508     0.14300
H1582       H  0.53322736  0.70066653  0.60924881     0.14300
H1583       H  0.92571226  0.84494974  0.41652650     0.12600
H1584       H  0.92700863  0.84415796  0.49733953     0.12600
H1585       H  0.61794114  0.64796916  0.40897226     0.12600
H1586       H  0.61925948  0.64501085  0.48981928     0.12600
H1587       H  0.52226707  0.74719030  0.41998267     0.25900
H1588       H  0.52129180  0.74302271  0.48797389     0.25900
N1589       N  0.76344401  0.98013953  0.89007247    -0.36900
N1590       N  0.72368607  0.52281185  0.95310658    -0.57400
N1591       N  0.76166624  0.98362502  0.01850040    -0.36900
N1592       N  0.80315571  0.94272608  0.95498618    -0.57400
C1593       C  0.74751581  0.50578995  0.86607674     0.26700
C1594       C  0.78977597  0.96376320  0.86724097     0.26700
C1595       C  0.74475187  0.50996796  0.04131842     0.26700
C1596       C  0.78715375  0.96683105  0.04245216     0.26700
C1597       C  0.70562462  0.53347426  0.91872783     0.35300
C1598       C  0.70461583  0.53581648  0.98575887     0.35300
C1599       C  0.81508512  0.92332521  0.92201364     0.35300
C1600       C  0.81374557  0.92425730  0.98906510     0.35300
C1601       C  0.76348051  0.00529178  0.82717944    -0.22200
C1602       C  0.79014521  0.97883202  0.82794085    -0.22200
C1603       C  0.75960788  0.00960895  0.08075836    -0.22200
C1604       C  0.78618450  0.98257366  0.08147648    -0.22200
C1605       C  0.67509151  0.55360222  0.92958921    -0.23200
C1606       C  0.67446799  0.55512250  0.97187251    -0.23200
C1607       C  0.83355599  0.89253731  0.93513960    -0.23200
C1608       C  0.83269511  0.89304842  0.97744123    -0.23200
C1609       C  0.71784334  0.52835358  0.87763015    -0.18600
C1610       C  0.81217575  0.93444526  0.88030854    -0.18600
C1611       C  0.80980646  0.93659933  0.03042270    -0.18600
C1612       C  0.71527240  0.53296969  0.02779172    -0.18600
H1613       H  0.75649794  0.52207720  0.80082560     0.14300
H1614       H  0.80758198  0.97134882  0.80232504     0.14300
H1615       H  0.75187716  0.52679466  0.10650499     0.14300
H1616       H  0.80264071  0.97510191  0.10791970     0.14300
H1617       H  0.65566875  0.56665397  0.90921936     0.12600
H1618       H  0.65439381  0.56952248  0.99013895     0.12600
H1619       H  0.84693212  0.87215989  0.91629325     0.12600
H1620       H  0.84549413  0.87301278  0.99722325     0.12600
H1621       H  0.75534739  0.97305229  0.91967464     0.25900
H1622       H  0.75498900  0.97605032  0.98863738     0.25900
C1623       C  0.88835658  0.90775892  0.81032920     0.79900
N1624       N  0.87589840  0.87592486  0.79516410    -0.78400
C1625       C  0.84334958  0.86268206  0.80718313     0.82400
N1626       N  0.82244511  0.88176853  0.83433874    -0.78300
C1627       C  0.83426958  0.91446281  0.84906937     0.82500
N1628       N  0.86765404  0.92719803  0.83749493    -0.80000
C1629       C  0.89175386  0.65364576  0.83525098     0.79900
N1630       N  0.91310859  0.67607699  0.85861663    -0.78400
C1631       C  0.94717079  0.66517378  0.87066315     0.82400
N1632       N  0.95960082  0.63158609  0.85883183    -0.78300
C1633       C  0.93805886  0.60921419  0.83552867     0.82500
N1634       N  0.90494875  0.62100233  0.82328445    -0.80000
C1635       C  0.69895174  0.54931182  0.84508318     0.79900
N1636       N  0.71208439  0.58232956  0.83307200    -0.78400
C1637       C  0.69294690  0.60276960  0.80554837     0.82400
N1638       N  0.66103852  0.59060749  0.79063430    -0.78300
C1639       C  0.64748767  0.55845511  0.80320306     0.82500
N1640       N  0.66615692  0.53768092  0.83072204    -0.80000
C1641       C  0.59802655  0.85994859  0.83640832     0.79900
N1642       N  0.63103318  0.84714405  0.82490333    -0.75200
C1643       C  0.64281605  0.81392058  0.83713254     0.82400
N1644       N  0.62011728  0.79199473  0.85954565    -0.78300
C1645       C  0.58615130  0.80391619  0.87043487     0.82500
N1646       N  0.57532315  0.83806637  0.85875616    -0.80000
C1647       C  0.58488600  0.66507737  0.55802431     0.79900
N1648       N  0.61851414  0.67646460  0.57105512    -0.78400
C1649       C  0.64047538  0.65367746  0.59332544     0.82400
N1650       N  0.62824822  0.62008534  0.60331408    -0.78300
C1651       C  0.59558174  0.60776811  0.59005580     0.82500
N1652       N  0.57355458  0.63052677  0.56773299    -0.80000
C1653       C  0.84134948  0.60351343  0.62355234     0.79900
N1654       N  0.82117988  0.58296881  0.59701109    -0.78400
C1655       C  0.83343970  0.54967844  0.58489167     0.82400
N1656       N  0.86646560  0.53785701  0.59822398    -0.78300
C1657       C  0.88641343  0.55860366  0.62468560     0.82500
N1658       N  0.87372281  0.59117685  0.63740525    -0.80000
C1659       C  0.67388085  0.79858541  0.81458987     0.42200
N1660       N  0.69993312  0.76892389  0.76592715     0.01100
C1661       C  0.86511645  0.67768002  0.76790782    -0.06800
H1662       H  0.86950081  0.81560798  0.73587396     0.06600
C1663       C  0.82191909  0.78659980  0.60142410    -0.07100
Co1664     Co  0.76928802  0.73364866  0.79197196     0.74200
N1665       N  0.82981067  0.77586373  0.75571303    -0.26300
Co1666     Co  0.83129106  0.73318862  0.71164972     0.74100
C1667       C  0.85763047  0.79938304  0.61576168     0.42300
N1668       N  0.72696909  0.77555093  0.64415748     0.00700
N1669       N  0.83157900  0.76985958  0.66441020     0.00800
N1670       N  0.82929662  0.68204348  0.82457892    -0.47200
H1671       H  0.72203476  0.78824644  0.85895265     0.06600
N1672       N  0.80546801  0.77615838  0.78603925     0.01100
N1673       N  0.82638347  0.69068812  0.66744261     0.00800
C1674       C  0.82980121  0.63985422  0.63546926     0.42400
N1675       N  0.70270730  0.77526675  0.67457753    -0.25800
C1676       C  0.73392754  0.65989190  0.81128312    -0.06700
N1677       N  0.66972705  0.78625411  0.77594292    -0.46900
N1678       N  0.84533829  0.66004255  0.66572962    -0.47100
C1679       C  0.70454827  0.63893110  0.79354412     0.42200
N1680       N  0.81413661  0.69830262  0.79199219     0.01100
N1681       N  0.69698816  0.69628382  0.67032070    -0.25800
N1682       N  0.72420932  0.76851931  0.79581061    -0.26300
N1683       N  0.71828922  0.69771370  0.63768474     0.00700
H1684       H  0.64292217  0.67576708  0.68047333     0.06600
H1685       H  0.78036158  0.65262223  0.59448080     0.06600
N1686       N  0.83532446  0.69694221  0.75926976    -0.26300
N1687       N  0.80773416  0.76857791  0.63413095    -0.26000
N1688       N  0.70658644  0.69008036  0.76224395     0.01100
C1689       C  0.83236030  0.82708753  0.79182882     0.42500
C1690       C  0.68508421  0.80713484  0.67407782    -0.07200
N1691       N  0.79965655  0.69112142  0.63985051    -0.26000
H1692       H  0.81035952  0.78748928  0.57068449     0.06600
N1693       N  0.80597415  0.80634536  0.80835433    -0.47200
H1694       H  0.66469986  0.81589695  0.69608126     0.06600
C1695       C  0.67090625  0.66786507  0.61816124     0.42300
C1696       C  0.71009792  0.78674246  0.82843050    -0.06700
Co1697     Co  0.70094987  0.73245296  0.71829615     0.73800
N1698       N  0.72748959  0.80627714  0.62284441    -0.46900
C1699       C  0.86123981  0.66797127  0.81093190     0.42600
N1700       N  0.68850599  0.65895270  0.76350894    -0.46900
Co1701     Co  0.76307262  0.73328647  0.63793943     0.73900
C1702       C  0.79975604  0.66021579  0.61814503    -0.07200
C1703       C  0.84852468  0.80714380  0.75730586    -0.06800
N1704       N  0.73321371  0.69100510  0.78994733    -0.26300
N1705       N  0.86146662  0.78778863  0.65471358    -0.47100
H1706       H  0.88913930  0.67609923  0.74860272     0.06600
C1707       C  0.66703261  0.67729508  0.66130753    -0.07200
Cl1708     Cl  0.76613942  0.73308012  0.71497881    -0.50200
C1709       C  0.70191060  0.82738102  0.64020943     0.42300
H1710       H  0.75355800  0.65251010  0.83477805     0.06500
N1711       N  0.70305487  0.68181327  0.60488191    -0.46900
C1712       C  0.88878204  0.81493003  0.59378298     0.79900
N1713       N  0.91194847  0.79327194  0.57167510    -0.78400
C1714       C  0.94625159  0.80519243  0.56214309     0.82400
N1715       N  0.95694030  0.83905971  0.57494578    -0.78300
C1716       C  0.93372425  0.86057321  0.59706692     0.82500
N1717       N  0.90040341  0.84779745  0.60710846    -0.80000
C1718       C  0.64503295  0.90704273  0.62298777     0.79900
N1719       N  0.65834164  0.87552281  0.63772967    -0.78400
C1720       C  0.69082874  0.86290156  0.62519666     0.82400
N1721       N  0.71103329  0.88235877  0.59774768    -0.78300
C1722       C  0.69829155  0.91486764  0.58338214     0.82500
N1723       N  0.66479580  0.92695222  0.59546374    -0.80000
C1724       C  0.92458136  0.91972213  0.79776366     0.42200
N1725       N  0.97455500  0.92366887  0.76386754     0.01100
C1726       C  0.59155783  0.56508099  0.75497417    -0.06800
H1727       H  0.96147861  0.60728996  0.74910816     0.06600
C1728       C  0.94307648  0.51762399  0.61929983    -0.07100
Co1729     Co  0.51806324  0.48676066  0.79181677     0.74200
N1730       N  0.98162662  0.55314120  0.75939525    -0.26300
Co1731     Co  0.51701284  0.54923610  0.71108831     0.74100
C1732       C  0.92271853  0.54745394  0.63692167     0.42300
N1733       N  0.98007820  0.93702031  0.63926319     0.00700
N1734       N  0.97393420  0.54459745  0.66792807     0.00800
N1735       N  0.59095120  0.52237105  0.80597518    -0.47200
H1736       H  0.93827003  0.96922224  0.83837936     0.06600
N1737       N  0.98289256  0.53173552  0.79199356     0.01100
N1738       N  0.55295900  0.54994323  0.66273187     0.00800
C1739       C  0.58053186  0.57645726  0.61266948     0.42400
N1740       N  0.97902079  0.91576247  0.67195063    -0.25800
C1741       C  0.57139159  0.92742375  0.82790440    -0.06700
N1742       N  0.94413437  0.90445998  0.76673324    -0.46900
N1743       N  0.56992997  0.58019534  0.65205913    -0.47100
C1744       C  0.58377439  0.89148392  0.81364443     0.42200
N1745       N  0.56034251  0.52266729  0.78459519     0.01100
N1746       N  0.55809712  0.92032454  0.67351553    -0.25800
N1747       N  0.97555683  0.95039842  0.79139517    -0.26300
N1748       N  0.55818409  0.94454460  0.64301340     0.00700
H1749       H  0.59810237  0.88110004  0.69351414     0.06600
H1750       H  0.56824860  0.52859979  0.56848016     0.06600
N1751       N  0.55996012  0.54704645  0.75426706    -0.26300
N1752       N  0.97420229  0.51784658  0.64041055    -0.26000
N1753       N  0.55379244  0.91771815  0.76524206     0.01100
C1754       C  0.95356484  0.57926687  0.81137117     0.42500
C1755       C  0.95840021  0.88673947  0.66404096    -0.07200
N1756       N  0.55139356  0.52586014  0.63269070    -0.26000
H1757       H  0.93531062  0.49807267  0.59587377     0.06600
N1758       N  0.96696728  0.54694816  0.82475479    -0.47200
H1759       H  0.95649535  0.86274550  0.68337305     0.06600
C1760       C  0.60907309  0.91783279  0.63711659     0.42300
C1761       C  0.94525262  0.94999709  0.81429766    -0.06700
Co1762     Co  0.51624617  0.91880659  0.71859944     0.73800
N1763       N  0.96231790  0.92254968  0.60736415    -0.46900
C1764       C  0.61173890  0.54825957  0.78878600     0.42600
N1765       N  0.57141158  0.88756549  0.77494067    -0.46900
Co1766     Co  0.51613000  0.98117797  0.63785196     0.73900
C1767       C  0.56820156  0.54024688  0.59919766    -0.07200
C1768       C  0.96295772  0.58320602  0.76834567    -0.06800
N1769       N  0.55316334  0.94172597  0.79539222    -0.26300
N1770       N  0.94310927  0.56332204  0.66679727    -0.47100
H1771       H  0.60006347  0.58582896  0.73326505     0.06600
C1772       C  0.58937399  0.90178569  0.67184614    -0.07200
Cl1773     Cl  0.51686648  0.48400012  0.71485879    -0.50200
C1774       C  0.94738820  0.89118445  0.62150152     0.42300
H1775       H  0.57263181  0.93904563  0.85860248     0.06500
N1776       N  0.58829120  0.94411796  0.62051441    -0.46900
loop_ 
_geom_bond_atom_site_label_1 
_geom_bond_atom_site_label_2 
_geom_bond_distance 
_geom_bond_site_symmetry_2 
_ccdc_geom_bond_type 
C1            N2   1.347       .  A
C1            N6   1.362       .  A
C1          C102   1.458       .  S
N2            C3   1.348       .  A
C3            N4   1.361       .  A
C3           C55   1.456       .  S
N4            C5   1.363       .  A
C5            N6   1.363       .  A
C5          C243   1.489       .  S
C7            N8   1.351       .  A
C7           N12   1.366       .  A
C7           C33   1.464       .  S
N8            C9   1.350       .  A
C9           N10   1.363       .  A
C9          C152   1.463       .  S
N10          C11   1.367       .  A
C11          N12   1.367       .  A
C11         C279   1.497       .  S
C13          N14   1.352       .  A
C13          N18   1.364       .  A
C13         C122   1.469       .  S
N14          C15   1.353       .  A
C15          N16   1.367       .  A
C15          C25   1.469       .  S
N16          C17   1.368       .  A
C17          N18   1.368       .  A
C17         C178   1.504       .  S
C19          N20   1.362       .  A
C19          N24   1.347       .  A
C19          C40   1.452       .  S
N20          C21   1.360       .  A
C21          N22   1.358       .  A
C21         C209   1.484       .  S
N22          C23   1.359       .  A
C23          N24   1.347       .  A
C23         C110   1.449       .  S
C25          N43   1.339       .  A
C25          C62   1.469       .  S
N26          N43   1.319       .  A
N26          N48   1.315       .  A
N26         Co63   2.044       .  S
C27          N52   1.332       .  A
C27          C65   1.444       .  S
C27          H72   1.082       .  S
H28          C69   1.081       .  S
C29          N53   1.352       .  A
C29          C33   1.467       .  S
C29         H946   1.081       .  S
Co30         N48   2.095       .  S
Co30        N926   2.058   1_455  S
Co30        N514   2.048       .  S
Co30       N1378   2.094   1_455  S
Co30        Cl74   2.494       .  S
N31          C69   1.338       .  A
N31          N38   1.327       .  A
N31         Co32   2.121       .  S
Co32         N35   2.042       .  S
Co32        N496   2.043       .  S
Co32        N483   2.124       .  S
Co32       Cl962   2.394       .  S
C33          N71   1.338       .  A
N34          N41   1.327       .  A
N34          N64   1.320       .  A
N34         Co67   2.048       .  S
N35          N53   1.315       .  A
N35          N71   1.318       .  A
N36          C65   1.354       .  A
N36          N46   1.332       .  A
H37          C62   1.081       .  S
N38          N59   1.323       .  A
N38        Co918   2.058       .  S
N39          N57   1.326       .  A
N39          N44   1.324       .  A
N39        Co476   2.124   1_545  S
C40          N44   1.354       .  A
C40          C68   1.444       .  S
N41          C56   1.335       .  A
N41         Co63   2.109       .  S
C42          N70   1.333       .  A
C42          C45   1.443       .  S
C42          H76   1.082       .  S
C45          N66   1.351       .  A
C45          C94   1.442       .  S
N46          N52   1.314       .  A
N46       Co1362   2.094   1_545  S
N47          C73   1.333       .  A
N47          N49   1.315       .  A
N47        Co507   2.045   1_545  S
N48          C62   1.353       .  A
N49          N77   1.334       .  A
N49        Co511   2.098   1_545  S
H50          C73   1.082       .  S
H51          C68   1.082       .  S
N52        Co476   2.043   1_545  S
N53        Co955   2.094       .  S
N54          N66   1.321       .  A
N54          N70   1.326       .  A
N54        Co507   2.111   1_545  S
C55          N59   1.343       .  A
C55          C69   1.461       .  S
C56          C75   1.459       .  S
C56          H60   1.081       .  S
N57          C68   1.333       .  A
N57       Co1399   2.049   1_545  S
H58         C917   1.081       .  S
C61          N77   1.356       .  A
C61          C73   1.443       .  S
C61          C98   1.471       .  S
Co63        N491   2.045       .  S
Co63        N498   2.111       .  S
Co63        Cl74   2.394       .  S
N64          C75   1.340       .  A
C65          C84   1.466       .  S
Co67        N493   2.098       .  S
Co67        N941   2.094   1_455  S
Co67       N1389   2.049   1_455  S
Co67        Cl74   2.495       .  S
N70        Co474   2.048   1_545  S
Cl74       Co920   2.394   1_455  S
C75          C80   1.445       .  S
C78          N79   1.342       .  A
C78          N83   1.361       .  A
C78         C138   1.452       .  S
N79          C80   1.342       .  A
C80          N81   1.358       .  A
N81          C82   1.361       .  A
C82          N83   1.364       .  A
C82         C210   1.483       .  S
C84          N85   1.348       .  A
C84          N89   1.364       .  A
N85          C86   1.349       .  A
C86          N87   1.367       .  A
C86         C132   1.464       .  S
N87          C88   1.369       .  A
C88          N89   1.369       .  A
C88         C177   1.504       .  S
C90          N91   1.360       .  A
C90          N95   1.358       .  A
C90         C244   1.474       .  S
N91          C92   1.358       .  A
C92          N93   1.343       .  A
C92         C142   1.442       .  S
N93          C94   1.342       .  A
C94          N95   1.357       .  A
C96          N97   1.370       .  A
C96         N101   1.370       .  A
C96         C280   1.508       .  S
N97          C98   1.366       .  A
C98          N99   1.351       .  A
N99         C100   1.351       .  A
C100        N101   1.369       .  A
C100        C117   1.471       .  S
C102        N120   1.355       .  A
C102        C139   1.447       .  S
N103        N120   1.324       .  A
N103        N125   1.325       .  A
N103       Co140   2.127       .  S
C104        N129   1.335       .  A
C104        C142   1.457       .  S
C104        H149   1.081       .  S
H105        C146   1.082       .  S
C106        N130   1.332       .  A
C106        C110   1.443       .  S
C106        H135   1.082       .  S
Co107       N125   2.055       .  S
Co107       N115   2.092       .  S
Co107       N147   2.101       .  S
Co107       N123   2.049       .  S
Co107      Cl151   2.492       .  S
N108        C146   1.331       .  A
N108        N115   1.316       .  A
N108       Co109   2.041       .  S
Co109       N112   2.116       .  S
Co109       N129   2.106       .  S
Co109       N116   2.049       .  S
Co109      Cl151   2.398       .  S
C110        N148   1.353       .  A
N111        N118   1.314       .  A
N111        N141   1.331       .  A
N111       Co144   2.096       .  S
N112        N130   1.325       .  A
N112        N148   1.324       .  A
N113        C142   1.339       .  A
N113        N123   1.320       .  A
H114        C139   1.082       .  S
N115        N136   1.333       .  A
N116        N134   1.315       .  A
N116        N121   1.320       .  A
C117        N121   1.339       .  A
C117        C145   1.470       .  S
N118        C133   1.331       .  A
N118       Co140   2.037       .  S
C119        N147   1.353       .  A
C119        C122   1.471       .  S
C119        H153   1.081       .  S
C122        N143   1.339       .  A
N123        N129   1.328       .  A
N124        C150   1.336       .  A
N124        N126   1.327       .  A
N124       Co140   2.116       .  S
N125        C139   1.336       .  A
N126        N154   1.323       .  A
N126       Co144   2.056       .  S
H127        C150   1.082       .  S
H128        C145   1.081       .  S
N130       Co144   2.048       .  S
N131        N143   1.319       .  A
N131        N147   1.314       .  A
N131       Co140   2.043       .  S
C132        N136   1.354       .  A
C132        C146   1.442       .  S
C133        C152   1.443       .  S
C133        H137   1.082       .  S
N134        C145   1.354       .  A
N134       Co144   2.098       .  S
C138        N154   1.342       .  A
C138        C150   1.460       .  S
Co140      Cl151   2.398       .  S
N141        C152   1.355       .  A
Co144      Cl151   2.491       .  S
N155        C159   1.355       .  A
N155        C604   1.355       .  A
N155        H187   1.037       .  S
N156        C163   1.354       .  A
N156        C164   1.353       .  A
N157        C161   1.364       .  A
N157        C606   1.364       .  A
N157        H188   1.033       .  S
N158        C165   1.354       .  A
N158        C166   1.354       .  A
C159        C167   1.387       .  A
C159        C175   1.417       .  A
C160        N599   1.355   1_545  A
C160        C176   1.417       .  A
C160        C612   1.387       .  A
C161        C169   1.388       .  A
C161        C178   1.441       .  A
C162        N601   1.364   1_545  A
C162        C177   1.440       .  A
C162        C614   1.388       .  A
C163        C175   1.414       .  A
C163        C171   1.385       .  A
C164        C178   1.420       .  A
C164        C172   1.390       .  A
C165        C173   1.386       .  A
C165        C176   1.415       .  A
C166        C174   1.390       .  A
C166        C177   1.421       .  A
C167        H179   1.082       .  S
C167        C168   1.378       .  A
C168        H624   1.082       .  S
C168        C604   1.387       .  A
C169        H181   1.082       .  S
C169        C170   1.391       .  A
C170        H626   1.082       .  S
C170        C606   1.388       .  A
C171        H183   1.082       .  S
C171        C172   1.367       .  A
C172        H184   1.082       .  S
C173        H185   1.082       .  S
C173        C174   1.368       .  A
C174        H186   1.082       .  S
C175        C390   1.483       .  S
C176        C323   1.483       .  S
H180        C612   1.082       .  S
H182        C614   1.082       .  S
N189        C194   1.356       .  A
N189       C1081   1.356   1_455  A
N189        H221   1.032       .  S
N190        C197   1.354   1_556  A
N190        C198   1.353       .  A
N191        C196   1.363       .  A
N191       C1083   1.364   1_455  A
N191        H222   1.030       .  S
N192        C199   1.353   1_556  A
N192        C200   1.352       .  A
C193       N1077   1.356       .  A
C193        C201   1.387       .  A
C193        C209   1.421       .  A
C194        C210   1.421       .  A
C194        C202   1.387       .  A
C195       N1079   1.364       .  A
C195        C203   1.388       .  A
C195        C212   1.441       .  A
C196        C211   1.441       .  A
C196        C204   1.388       .  A
C197        C209   1.417       .  A
C197        C205   1.387   1_554  A
C198        C212   1.421       .  A
C198        C206   1.390       .  A
C199        C207   1.386   1_554  A
C199        C210   1.415       .  A
C200        C208   1.391       .  A
C200        C211   1.421       .  A
C201        H213   1.082       .  S
C201       C1090   1.378       .  A
C202        H214   1.082       .  S
C202       C1089   1.378       .  A
C203        H215   1.082       .  S
C203       C1092   1.390       .  A
C204        H216   1.082       .  S
C204       C1091   1.390       .  A
C205        H217   1.082   1_556  S
C205        C206   1.368       .  A
C206        H218   1.082       .  S
C207        H219   1.083   1_556  S
C207        C208   1.368       .  A
C208        H220   1.082       .  S
C211        C313   1.500       .  S
C212        C299   1.502       .  S
N223        C228   1.351       .  A
N223       C1115   1.356   1_455  A
N223        H255   1.034       .  S
N224        C231   1.356       .  A
N224        C232   1.353       .  A
N225        C230   1.365       .  A
N225       C1117   1.362   1_455  A
N225        H256   1.032       .  S
N226        C233   1.353       .  A
N226        C234   1.355       .  A
C227       N1111   1.356       .  A
C227        C243   1.418       .  A
C227       C1123   1.387       .  A
C228        C244   1.417       .  A
C228        C236   1.388       .  A
C229       N1113   1.362       .  A
C229        C246   1.442       .  A
C229       C1125   1.389       .  A
C230        C245   1.442       .  A
C230        C238   1.388       .  A
C231        C243   1.415       .  A
C231        C239   1.383       .  A
C232        C246   1.422       .  A
C232        C240   1.391       .  A
C233        C241   1.387       .  A
C233        C244   1.417       .  A
C234        C242   1.389       .  A
C234        C245   1.421       .  A
C235       H1135   1.082       .  S
C235        C236   1.377   1_655  A
C235       C1115   1.387       .  A
C236        H248   1.082       .  S
C237       H1137   1.082       .  S
C237        C238   1.391   1_655  A
C237       C1117   1.389       .  A
C238        H250   1.082       .  S
C239        H251   1.082       .  S
C239        C240   1.367       .  A
C240        H252   1.082       .  S
C241        H253   1.082       .  S
C241        C242   1.368       .  A
C242        H254   1.082       .  S
C245        C315   1.508       .  S
C246        C382   1.500       .  S
H247       C1123   1.082       .  S
H249       C1125   1.082       .  S
N257        C262   1.357       .  A
N257        C705   1.353       .  A
N257        H289   1.036       .  S
N258        C265   1.352       .  A
N258        C266   1.354       .  A
N259        C264   1.362       .  A
N259        C707   1.365       .  A
N259        H290   1.034   1_554  S
N260        C267   1.355       .  A
N260        C268   1.351       .  A
C261        N701   1.353   1_545  A
C261        C277   1.418       .  A
C261        C713   1.388       .  A
C262        C278   1.418       .  A
C262        C270   1.386       .  A
C263        N703   1.365   1_545  A
C263        C280   1.440       .  A
C263        C715   1.387       .  A
C264        C279   1.440       .  A
C264        C272   1.388       .  A
C265        C277   1.415       .  A
C265        C273   1.387       .  A
C266        C280   1.418   1_556  A
C266        C274   1.388       .  A
C267        C275   1.384       .  A
C267        C278   1.413       .  A
C268        C276   1.391       .  A
C268        C279   1.419   1_556  A
C269        H725   1.082       .  S
C269        C270   1.379       .  A
C269        C705   1.388       .  A
C270        H282   1.082       .  S
C271        H727   1.082       .  S
C271        C272   1.391       .  A
C271        C707   1.387       .  A
C272        H284   1.082       .  S
C273        H285   1.082       .  S
C273        C274   1.369       .  A
C274        H286   1.082       .  S
C275        H287   1.082       .  S
C275        C276   1.369       .  A
C276        H288   1.082       .  S
C277        C303   1.476       .  S
C278        C295   1.489       .  S
H281        C713   1.082       .  S
H283        C715   1.082       .  S
C291        N292   1.347       .  A
C291        N296   1.363       .  A
C291        C392   1.458       .  S
N292        C293   1.347       .  A
C293        N294   1.360       .  A
C293        C357   1.454       .  S
N294        C295   1.362       .  A
C295        N296   1.364       .  A
C297        N298   1.365       .  A
C297        N302   1.349       .  A
C297        C367   1.466       .  S
N298        C299   1.369       .  A
C299        N300   1.369       .  A
N300        C301   1.366       .  A
C301        N302   1.349       .  A
C301        C422   1.463       .  S
C303        N304   1.360       .  A
C303        N308   1.359       .  A
N304        C305   1.359       .  A
C305        N306   1.343       .  A
C305        C347   1.446       .  S
N306        C307   1.343       .  A
C307        N308   1.357       .  A
C307        C432   1.442       .  S
C309        N310   1.352       .  A
C309        N314   1.364       .  A
C309        C412   1.468       .  S
N310        C311   1.352       .  A
C311        N312   1.366       .  A
C311        C327   1.466       .  S
N312        C313   1.367       .  A
C313        N314   1.368       .  A
C315        N316   1.369       .  A
C315        N320   1.370       .  A
N316        C317   1.366       .  A
C317        N318   1.351       .  A
C317        C363   1.471       .  S
N318        C319   1.351       .  A
C319        N320   1.368       .  A
C319        C407   1.469       .  S
C321        N322   1.361       .  A
C321        N326   1.348       .  A
C321        C342   1.451       .  S
N322        C323   1.359       .  A
C323        N324   1.358       .  A
N324        C325   1.359       .  A
C325        N326   1.347       .  A
C325        C400   1.449       .  S
C327        N345   1.338       .  A
C327        C364   1.468       .  S
N328        N345   1.318       .  A
N328        N350   1.315       .  A
N328       Co365   2.041       .  S
C329        N354   1.332       .  A
C329        C367   1.443       .  S
C329        H374   1.082       .  S
H330        C371   1.081       .  S
C331        N355   1.352       .  A
C331        C335   1.467       .  S
C331        H360   1.081       .  S
Co332       N350   2.095       .  S
Co332       N340   2.057       .  S
Co332       N372   2.051       .  S
Co332       N348   2.095       .  S
Co332      Cl376   2.493       .  S
N333        C371   1.338       .  A
N333        N340   1.327       .  A
N333       Co334   2.118       .  S
Co334       N337   2.036       .  S
Co334       N354   2.040       .  S
Co334       N341   2.123       .  S
Co334      Cl376   2.394       .  S
C335        N373   1.337       .  A
C335        C380   1.462       .  S
N336        N343   1.327       .  A
N336        N366   1.321       .  A
N336       Co369   2.050       .  S
N337        N355   1.314       .  A
N337        N373   1.317       .  A
N338        C367   1.355       .  A
N338        N348   1.333       .  A
H339        C364   1.081       .  S
N340        N361   1.322       .  A
N341        N359   1.326       .  A
N341        N346   1.323       .  A
C342        N346   1.353       .  A
C342        C370   1.445       .  S
N343        C358   1.336       .  A
N343       Co365   2.114       .  S
C344        N372   1.334       .  A
C344        C347   1.443       .  S
C344        H378   1.082       .  S
C347        N368   1.353       .  A
N348        N354   1.314       .  A
N349        C375   1.334       .  A
N349        N351   1.315       .  A
N349       Co365   2.047       .  S
N350        C364   1.352       .  A
N351        N379   1.334       .  A
N351       Co369   2.099       .  S
H352        C375   1.082       .  S
H353        C370   1.082       .  S
N355       Co369   2.092       .  S
N356        N368   1.321       .  A
N356        N372   1.326       .  A
N356       Co365   2.116       .  S
C357        N361   1.343       .  A
C357        C371   1.461       .  S
C358        C377   1.460       .  S
C358        H362   1.081       .  S
N359        C370   1.334       .  A
N359       Co369   2.049       .  S
C363        N379   1.356       .  A
C363        C375   1.445       .  S
Co365      Cl376   2.395       .  S
N366        C377   1.340       .  A
Co369      Cl376   2.494       .  S
C377        C388   1.449       .  S
C380        N381   1.366       .  A
C380        N385   1.350       .  A
N381        C382   1.368       .  A
C382        N383   1.367       .  A
N383        C384   1.364       .  A
C384        N385   1.349       .  A
C384        C442   1.462       .  S
C386        N387   1.343       .  A
C386        N391   1.361       .  A
C386        C428   1.452       .  S
N387        C388   1.342       .  A
C388        N389   1.359       .  A
N389        C390   1.363       .  A
C390        N391   1.364       .  A
C392        N410   1.355       .  A
C392        C429   1.447       .  S
N393        N410   1.324       .  A
N393        N415   1.325       .  A
N393      Co1318   2.125       .  S
C394        N419   1.335       .  A
C394        C432   1.458       .  S
C394        H439   1.082       .  S
H395        C436   1.082       .  S
C396        N420   1.331       .  A
C396        C400   1.442       .  S
C396        H425   1.082   1_545  S
Co397       N413   2.049   1_565  S
Co397      N1747   2.053   1_455  S
Co397      N1293   2.095   1_465  S
Co397       N881   2.098       .  S
Co397      Cl441   2.491       .  S
N398        C436   1.330       .  A
N398        N405   1.315       .  A
N398      Co1287   2.037       .  S
Co399       N419   2.107       .  S
Co399       N406   2.046       .  S
Co399      N1286   2.037   1_455  S
Co399      N1290   2.116   1_455  S
Co399      Cl441   2.396   1_545  S
C400        N438   1.354       .  A
N401        N408   1.314       .  A
N401        N431   1.331       .  A
N401      Co1322   2.092       .  S
N402        N420   1.325       .  A
N402        N438   1.324       .  A
N402      Co1287   2.116       .  S
N403        C432   1.339       .  A
N403        N413   1.319       .  A
H404        C429   1.082       .  S
N405        N426   1.333       .  A
N405      Co1285   2.095   1_545  S
N406        N424   1.314       .  A
N406        N411   1.319       .  A
C407        N411   1.339       .  A
C407        C435   1.469       .  S
N408        C423   1.331       .  A
N408      Co1318   2.038       .  S
C409        N437   1.352       .  A
C409        C412   1.469       .  S
C409        H443   1.081       .  S
C412        N433   1.339       .  A
N413        N419   1.327       .  A
N414        C440   1.335       .  A
N414        N416   1.328       .  A
N414       Co430   2.119       .  S
N415        C429   1.336       .  A
N415      Co1729   2.053       .  S
N416        N444   1.323       .  A
N416       Co434   2.053       .  S
H417        C440   1.081       .  S
H418        C435   1.081       .  S
N420      Co1766   2.046   1_545  S
N421        N433   1.319       .  A
N421        N437   1.314       .  A
N421       Co430   2.043       .  S
C422        N426   1.355       .  A
C422        C436   1.441       .  S
C423        C442   1.443       .  S
C423        H427   1.082       .  S
N424        C435   1.354       .  A
N424       Co878   2.095   1_545  S
C428        N444   1.342       .  A
C428        C440   1.460       .  S
Co430      N1281   2.125   1_455  S
Co430      N1296   2.038   1_455  S
Co430      Cl885   2.395       .  S
N431        C442   1.354       .  A
Co434      N1289   2.092   1_455  S
Co434      N1752   2.046   1_455  S
Co434       N868   2.095       .  S
Co434      Cl885   2.493       .  S
N437       Co841   2.098       .  S
Cl441      Co874   2.395       .  S
Cl441      Co878   2.493       .  S
C445        N446   1.347       .  A
C445        N450   1.362       .  A
C445        C546   1.458       .  S
N446        C447   1.348       .  A
C447        N448   1.361       .  A
C447        C499   1.456       .  S
N448        C449   1.363       .  A
C449        N450   1.363       .  A
C449        C687   1.488       .  S
C451        N452   1.351       .  A
C451        N456   1.366       .  A
C451        C477   1.464       .  S
N452        C453   1.350       .  A
C453        N454   1.363       .  A
C453        C596   1.463       .  S
N454        C455   1.367       .  A
C455        N456   1.367       .  A
C455        C723   1.497       .  S
C457        N458   1.352       .  A
C457        N462   1.364       .  A
C457        C566   1.469       .  S
N458        C459   1.353       .  A
C459        N460   1.367       .  A
C459        C469   1.469       .  S
N460        C461   1.368       .  A
C461        N462   1.368       .  A
C461        C622   1.504       .  S
C463        N464   1.362       .  A
C463        N468   1.347       .  A
C463        C484   1.452       .  S
N464        C465   1.360       .  A
C465        N466   1.358       .  A
C465        C653   1.484       .  S
N466        C467   1.359       .  A
C467        N468   1.347       .  A
C467        C554   1.449       .  S
C469        N487   1.339       .  A
C469        C506   1.469       .  S
N470        N487   1.319       .  A
N470        N492   1.315       .  A
N470       Co507   2.044       .  S
C471        N496   1.332       .  A
C471        C509   1.444       .  S
C471        H516   1.082       .  S
H472        C513   1.081       .  S
C473        N497   1.352       .  A
C473        C477   1.467       .  S
C473       H1390   1.081       .  S
Co474       N492   2.095       .  S
Co474      N1370   2.058   1_455  S
Co474       N934   2.094   1_465  S
Co474      Cl518   2.494       .  S
N475        C513   1.338       .  A
N475        N482   1.327       .  A
N475       Co476   2.121       .  S
Co476       N479   2.042       .  S
Co476     Cl1406   2.394       .  S
C477        N515   1.338       .  A
N478        N485   1.327       .  A
N478        N508   1.320       .  A
N478       Co511   2.048       .  S
N479        N497   1.315       .  A
N479        N515   1.318       .  A
N480        C509   1.354       .  A
N480        N490   1.332       .  A
H481        C506   1.081       .  S
N482        N503   1.323       .  A
N482      Co1362   2.058       .  S
N483        N501   1.326       .  A
N483        N488   1.324       .  A
C484        N488   1.354       .  A
C484        C512   1.444       .  S
N485        C500   1.335       .  A
N485       Co507   2.109       .  S
C486        N514   1.333       .  A
C486        C489   1.443       .  S
C486        H520   1.082       .  S
C489        N510   1.351       .  A
C489        C538   1.442       .  S
N490        N496   1.314       .  A
N490       Co918   2.094       .  S
N491        C517   1.333       .  A
N491        N493   1.315       .  A
N492        C506   1.353       .  A
N493        N521   1.334       .  A
H494        C517   1.082       .  S
H495        C512   1.082       .  S
N497      Co1399   2.094       .  S
N498        N510   1.321       .  A
N498        N514   1.326       .  A
C499        N503   1.343       .  A
C499        C513   1.461       .  S
C500        C519   1.459       .  S
C500        H504   1.081       .  S
N501        C512   1.333       .  A
N501       Co955   2.049       .  S
H502       C1361   1.081       .  S
C505        N521   1.356       .  A
C505        C517   1.443       .  S
C505        C542   1.471       .  S
Co507      Cl518   2.394       .  S
N508        C519   1.340       .  A
C509        C528   1.466       .  S
Co511      N1385   2.094   1_455  S
Co511       N945   2.049   1_465  S
Co511      Cl518   2.495       .  S
Cl518     Co1364   2.394   1_455  S
C519        C524   1.445       .  S
C522        N523   1.342       .  A
C522        N527   1.361       .  A
C522        C582   1.452       .  S
N523        C524   1.342       .  A
C524        N525   1.358       .  A
N525        C526   1.361       .  A
C526        N527   1.364       .  A
C526        C654   1.483       .  S
C528        N529   1.348       .  A
C528        N533   1.364       .  A
N529        C530   1.349       .  A
C530        N531   1.367       .  A
C530        C576   1.464       .  S
N531        C532   1.369       .  A
C532        N533   1.369       .  A
C532        C621   1.504       .  S
C534        N535   1.360       .  A
C534        N539   1.358       .  A
C534        C688   1.474       .  S
N535        C536   1.358       .  A
C536        N537   1.343       .  A
C536        C586   1.442       .  S
N537        C538   1.342       .  A
C538        N539   1.357       .  A
C540        N541   1.370       .  A
C540        N545   1.370       .  A
C540        C724   1.508       .  S
N541        C542   1.366       .  A
C542        N543   1.351       .  A
N543        C544   1.351       .  A
C544        N545   1.369       .  A
C544        C561   1.471       .  S
C546        N564   1.355       .  A
C546        C583   1.447       .  S
N547        N564   1.324       .  A
N547        N569   1.325       .  A
N547       Co584   2.127       .  S
C548        N573   1.335       .  A
C548        C586   1.457       .  S
C548        H593   1.081       .  S
H549        C590   1.082       .  S
C550        N574   1.332       .  A
C550        C554   1.443       .  S
C550        H579   1.082       .  S
Co551       N569   2.055       .  S
Co551       N559   2.092       .  S
Co551       N591   2.101       .  S
Co551       N567   2.049       .  S
Co551      Cl595   2.492       .  S
N552        C590   1.331       .  A
N552        N559   1.316       .  A
N552       Co553   2.041       .  S
Co553       N556   2.116       .  S
Co553       N573   2.106       .  S
Co553       N560   2.049       .  S
Co553      Cl595   2.398       .  S
C554        N592   1.353       .  A
N555        N562   1.314       .  A
N555        N585   1.331       .  A
N555       Co588   2.096       .  S
N556        N574   1.325       .  A
N556        N592   1.324       .  A
N557        C586   1.339       .  A
N557        N567   1.320       .  A
H558        C583   1.082       .  S
N559        N580   1.333       .  A
N560        N578   1.315       .  A
N560        N565   1.320       .  A
C561        N565   1.339       .  A
C561        C589   1.470       .  S
N562        C577   1.331       .  A
N562       Co584   2.037       .  S
C563        N591   1.353       .  A
C563        C566   1.471       .  S
C563        H597   1.081       .  S
C566        N587   1.339       .  A
N567        N573   1.328       .  A
N568        C594   1.336       .  A
N568        N570   1.327       .  A
N568       Co584   2.116       .  S
N569        C583   1.336       .  A
N570        N598   1.323       .  A
N570       Co588   2.056       .  S
H571        C594   1.082       .  S
H572        C589   1.081       .  S
N574       Co588   2.048       .  S
N575        N587   1.319       .  A
N575        N591   1.314       .  A
N575       Co584   2.043       .  S
C576        N580   1.354       .  A
C576        C590   1.442       .  S
C577        C596   1.443       .  S
C577        H581   1.082       .  S
N578        C589   1.354       .  A
N578       Co588   2.098       .  S
C582        N598   1.342       .  A
C582        C594   1.460       .  S
Co584      Cl595   2.398       .  S
N585        C596   1.355       .  A
Co588      Cl595   2.491       .  S
N599        C603   1.355       .  A
N599        H631   1.037       .  S
N600        C607   1.354       .  A
N600        C608   1.353       .  A
N601        C605   1.364       .  A
N601        H632   1.033       .  S
N602        C609   1.354       .  A
N602        C610   1.354       .  A
C603        C611   1.387       .  A
C603        C619   1.417       .  A
C604        C620   1.417       .  A
C605        C613   1.388       .  A
C605        C622   1.441       .  A
C606        C621   1.440       .  A
C607        C619   1.414       .  A
C607        C615   1.385       .  A
C608        C622   1.420       .  A
C608        C616   1.390       .  A
C609        C617   1.386       .  A
C609        C620   1.415       .  A
C610        C618   1.390       .  A
C610        C621   1.421       .  A
C611        H623   1.082       .  S
C611        C612   1.378   1_565  A
C613        H625   1.082       .  S
C613        C614   1.391   1_565  A
C615        H627   1.082       .  S
C615        C616   1.367       .  A
C616        H628   1.082       .  S
C617        H629   1.082       .  S
C617        C618   1.368       .  A
C618        H630   1.082       .  S
C619        C834   1.483       .  S
C620        C767   1.483       .  S
N633        C638   1.356       .  A
N633       C1525   1.356   1_455  A
N633        H665   1.032       .  S
N634        C641   1.354   1_556  A
N634        C642   1.353       .  A
N635        C640   1.363       .  A
N635       C1527   1.364   1_455  A
N635        H666   1.030       .  S
N636        C643   1.353   1_556  A
N636        C644   1.352       .  A
C637       N1521   1.356       .  A
C637        C645   1.387       .  A
C637        C653   1.421       .  A
C638        C654   1.421       .  A
C638        C646   1.387       .  A
C639       N1523   1.364       .  A
C639        C647   1.388       .  A
C639        C656   1.441       .  A
C640        C655   1.441       .  A
C640        C648   1.388       .  A
C641        C653   1.417       .  A
C641        C649   1.387   1_554  A
C642        C656   1.421       .  A
C642        C650   1.390       .  A
C643        C651   1.386   1_554  A
C643        C654   1.415       .  A
C644        C652   1.391       .  A
C644        C655   1.421       .  A
C645        H657   1.082       .  S
C645       C1534   1.378       .  A
C646        H658   1.082       .  S
C646       C1533   1.378       .  A
C647        H659   1.082       .  S
C647       C1536   1.390       .  A
C648        H660   1.082       .  S
C648       C1535   1.390       .  A
C649        H661   1.082   1_556  S
C649        C650   1.368       .  A
C650        H662   1.082       .  S
C651        H663   1.083   1_556  S
C651        C652   1.368       .  A
C652        H664   1.082       .  S
C655        C757   1.500       .  S
C656        C743   1.502       .  S
N667        C672   1.351       .  A
N667       C1559   1.356   1_455  A
N667        H699   1.034       .  S
N668        C675   1.356       .  A
N668        C676   1.353       .  A
N669        C674   1.365       .  A
N669       C1561   1.362   1_455  A
N669        H700   1.032       .  S
N670        C677   1.353       .  A
N670        C678   1.355       .  A
C671       N1555   1.356       .  A
C671       C1567   1.387       .  A
C671        C687   1.418       .  A
C672        C688   1.417       .  A
C672        C680   1.388       .  A
C673       N1557   1.362       .  A
C673       C1569   1.389       .  A
C673        C690   1.442       .  A
C674        C689   1.442       .  A
C674        C682   1.388       .  A
C675        C687   1.415       .  A
C675        C683   1.383       .  A
C676        C690   1.422       .  A
C676        C684   1.391       .  A
C677        C685   1.387       .  A
C677        C688   1.417       .  A
C678        C686   1.389       .  A
C678        C689   1.421       .  A
C679       H1579   1.082       .  S
C679       C1559   1.387       .  A
C679        C680   1.377   1_655  A
C680        H692   1.082       .  S
C681       H1581   1.082       .  S
C681       C1561   1.389       .  A
C681        C682   1.391   1_655  A
C682        H694   1.082       .  S
C683        H695   1.082       .  S
C683        C684   1.367       .  A
C684        H696   1.082       .  S
C685        H697   1.082       .  S
C685        C686   1.368       .  A
C686        H698   1.082       .  S
C689        C759   1.508       .  S
C690        C826   1.500       .  S
H691       C1567   1.082       .  S
H693       C1569   1.082       .  S
N701        C706   1.357       .  A
N701        H733   1.036       .  S
N702        C709   1.352       .  A
N702        C710   1.354       .  A
N703        C708   1.362       .  A
N703        H734   1.034   1_554  S
N704        C711   1.355       .  A
N704        C712   1.351       .  A
C705        C721   1.418       .  A
C706        C722   1.418       .  A
C706        C714   1.386       .  A
C707        C724   1.440       .  A
C708        C723   1.440       .  A
C708        C716   1.388       .  A
C709        C721   1.415       .  A
C709        C717   1.387       .  A
C710        C724   1.418   1_556  A
C710        C718   1.388       .  A
C711        C719   1.384       .  A
C711        C722   1.413       .  A
C712        C720   1.391       .  A
C712        C723   1.419   1_556  A
C713        C714   1.379   1_545  A
C714        H726   1.082       .  S
C715        C716   1.391   1_545  A
C716        H728   1.082       .  S
C717        H729   1.082       .  S
C717        C718   1.369       .  A
C718        H730   1.082       .  S
C719        H731   1.082       .  S
C719        C720   1.369       .  A
C720        H732   1.082       .  S
C721        C747   1.476       .  S
C722        C739   1.489       .  S
C735        N736   1.347       .  A
C735        N740   1.363       .  A
C735        C836   1.458       .  S
N736        C737   1.347       .  A
C737        N738   1.360       .  A
C737        C801   1.454       .  S
N738        C739   1.362       .  A
C739        N740   1.364       .  A
C741        N742   1.365       .  A
C741        N746   1.349       .  A
C741        C811   1.466       .  S
N742        C743   1.369       .  A
C743        N744   1.369       .  A
N744        C745   1.366       .  A
C745        N746   1.349       .  A
C745        C866   1.463       .  S
C747        N748   1.360       .  A
C747        N752   1.359       .  A
N748        C749   1.359       .  A
C749        N750   1.343       .  A
C749        C791   1.446       .  S
N750        C751   1.343       .  A
C751        N752   1.357       .  A
C751        C876   1.442       .  S
C753        N754   1.352       .  A
C753        N758   1.364       .  A
C753        C856   1.468       .  S
N754        C755   1.352       .  A
C755        N756   1.366       .  A
C755        C771   1.466       .  S
N756        C757   1.367       .  A
C757        N758   1.368       .  A
C759        N760   1.369       .  A
C759        N764   1.370       .  A
N760        C761   1.366       .  A
C761        N762   1.351       .  A
C761        C807   1.471       .  S
N762        C763   1.351       .  A
C763        N764   1.368       .  A
C763        C851   1.469       .  S
C765        N766   1.361       .  A
C765        N770   1.348       .  A
C765        C786   1.451       .  S
N766        C767   1.359       .  A
C767        N768   1.358       .  A
N768        C769   1.359       .  A
C769        N770   1.347       .  A
C769        C844   1.449       .  S
C771        N789   1.338       .  A
C771        C808   1.468       .  S
N772        N789   1.318       .  A
N772        N794   1.315       .  A
N772       Co809   2.041       .  S
C773        N798   1.332       .  A
C773        C811   1.443       .  S
C773        H818   1.082       .  S
H774        C815   1.081       .  S
C775        N799   1.352       .  A
C775        C779   1.467       .  S
C775        H804   1.081       .  S
Co776       N794   2.095       .  S
Co776       N784   2.057       .  S
Co776       N816   2.051       .  S
Co776       N792   2.095       .  S
Co776      Cl820   2.493       .  S
N777        C815   1.338       .  A
N777        N784   1.327       .  A
N777       Co778   2.118       .  S
Co778       N781   2.036       .  S
Co778       N798   2.040       .  S
Co778       N785   2.123       .  S
Co778      Cl820   2.394       .  S
C779        N817   1.337       .  A
C779        C824   1.462       .  S
N780        N787   1.327       .  A
N780        N810   1.321       .  A
N780       Co813   2.050       .  S
N781        N799   1.314       .  A
N781        N817   1.317       .  A
N782        C811   1.355       .  A
N782        N792   1.333       .  A
H783        C808   1.081       .  S
N784        N805   1.322       .  A
N785        N803   1.326       .  A
N785        N790   1.323       .  A
C786        N790   1.353       .  A
C786        C814   1.445       .  S
N787        C802   1.336       .  A
N787       Co809   2.114       .  S
C788        N816   1.334       .  A
C788        C791   1.443       .  S
C788        H822   1.082       .  S
C791        N812   1.353       .  A
N792        N798   1.314       .  A
N793        C819   1.334       .  A
N793        N795   1.315       .  A
N793       Co809   2.047       .  S
N794        C808   1.352       .  A
N795        N823   1.334       .  A
N795       Co813   2.099       .  S
H796        C819   1.082       .  S
H797        C814   1.082       .  S
N799       Co813   2.092       .  S
N800        N812   1.321       .  A
N800        N816   1.326       .  A
N800       Co809   2.116       .  S
C801        N805   1.343       .  A
C801        C815   1.461       .  S
C802        C821   1.460       .  S
C802        H806   1.081       .  S
N803        C814   1.334       .  A
N803       Co813   2.049       .  S
C807        N823   1.356       .  A
C807        C819   1.445       .  S
Co809      Cl820   2.395       .  S
N810        C821   1.340       .  A
Co813      Cl820   2.494       .  S
C821        C832   1.449       .  S
C824        N825   1.366       .  A
C824        N829   1.350       .  A
N825        C826   1.368       .  A
C826        N827   1.367       .  A
N827        C828   1.364       .  A
C828        N829   1.349       .  A
C828        C886   1.462       .  S
C830        N831   1.343       .  A
C830        N835   1.361       .  A
C830        C872   1.452       .  S
N831        C832   1.342       .  A
C832        N833   1.359       .  A
N833        C834   1.363       .  A
C834        N835   1.364       .  A
C836        N854   1.355       .  A
C836        C873   1.447       .  S
N837        N854   1.324       .  A
N837        N859   1.325       .  A
N837      Co1762   2.125       .  S
C838        N863   1.335       .  A
C838        C876   1.458       .  S
C838        H883   1.082       .  S
H839        C880   1.082       .  S
C840        N864   1.331       .  A
C840        C844   1.442       .  S
C840        H869   1.082       .  S
Co841      N1303   2.053   1_455  S
Co841      N1737   2.095   1_455  S
Co841       N857   2.049       .  S
Co841      Cl885   2.491       .  S
N842        C880   1.330       .  A
N842        N849   1.315       .  A
N842      Co1731   2.037       .  S
Co843      N1730   2.037   1_455  S
Co843      N1734   2.116   1_455  S
Co843       N863   2.107       .  S
Co843       N850   2.046       .  S
Co843      Cl885   2.396       .  S
C844        N882   1.354       .  A
N845        N852   1.314       .  A
N845        N875   1.331       .  A
N845      Co1766   2.092       .  S
N846        N864   1.325       .  A
N846        N882   1.324       .  A
N846      Co1731   2.116       .  S
N847        C876   1.339       .  A
N847        N857   1.319       .  A
H848        C873   1.082       .  S
N849        N870   1.333       .  A
N849      Co1729   2.095       .  S
N850        N868   1.314       .  A
N850        N855   1.319       .  A
C851        N855   1.339       .  A
C851        C879   1.469       .  S
N852        C867   1.331       .  A
N852      Co1762   2.038       .  S
C853        N881   1.352       .  A
C853        C856   1.469       .  S
C853        H887   1.081       .  S
C856        N877   1.339       .  A
N857        N863   1.327       .  A
N858        C884   1.335       .  A
N858        N860   1.328       .  A
N858       Co874   2.119       .  S
N859        C873   1.336       .  A
N859      Co1285   2.053       .  S
N860        N888   1.323       .  A
N860       Co878   2.053       .  S
H861        C884   1.081       .  S
H862        C879   1.081       .  S
N864      Co1322   2.046       .  S
N865        N877   1.319       .  A
N865        N881   1.314       .  A
N865       Co874   2.043       .  S
C866        N870   1.355       .  A
C866        C880   1.441       .  S
C867        C886   1.443       .  S
C867        H871   1.082       .  S
N868        C879   1.354       .  A
C872        N888   1.342       .  A
C872        C884   1.460       .  S
Co874      N1725   2.125   1_455  S
Co874      N1740   2.038   1_455  S
N875        C886   1.354       .  A
Co878      N1733   2.092   1_455  S
Co878      N1308   2.046   1_465  S
C889        N890   1.347       .  A
C889        N894   1.362       .  A
C889        C990   1.458       .  S
N890        C891   1.348       .  A
C891        N892   1.361       .  A
C891        C943   1.456       .  S
N892        C893   1.363       .  A
C893        N894   1.363       .  A
C893       C1131   1.488       .  S
C895        N896   1.351       .  A
C895        N900   1.366       .  A
C895        C921   1.464       .  S
N896        C897   1.350       .  A
C897        N898   1.363       .  A
C897       C1040   1.463       .  S
N898        C899   1.367       .  A
C899        N900   1.367       .  A
C899       C1167   1.497       .  S
C901        N902   1.352       .  A
C901        N906   1.364       .  A
C901       C1010   1.469       .  S
N902        C903   1.353       .  A
C903        N904   1.367       .  A
C903        C913   1.469       .  S
N904        C905   1.368       .  A
C905        N906   1.368       .  A
C905       C1066   1.504       .  S
C907        N908   1.362       .  A
C907        N912   1.347       .  A
C907        C928   1.452       .  S
N908        C909   1.360       .  A
C909        N910   1.358       .  A
C909       C1097   1.484       .  S
N910        C911   1.359       .  A
C911        N912   1.347       .  A
C911        C998   1.449       .  S
C913        N931   1.339       .  A
C913        C950   1.469       .  S
N914        N931   1.319       .  A
N914        N936   1.315       .  A
N914       Co951   2.044       .  S
C915        N940   1.332       .  A
C915        C953   1.444       .  S
C915        H960   1.082       .  S
H916        C957   1.081       .  S
C917        N941   1.352       .  A
C917        C921   1.467       .  S
Co918       N936   2.095       .  S
Co918      N1402   2.048       .  S
Co918      Cl962   2.494       .  S
N919        C957   1.338       .  A
N919        N926   1.327       .  A
N919       Co920   2.121       .  S
Co920       N923   2.042       .  S
Co920      N1384   2.043       .  S
Co920      N1371   2.124       .  S
C921        N959   1.338       .  A
N922        N929   1.327       .  A
N922        N952   1.320       .  A
N922       Co955   2.048       .  S
N923        N941   1.315       .  A
N923        N959   1.318       .  A
N924        C953   1.354       .  A
N924        N934   1.332       .  A
H925        C950   1.081       .  S
N926        N947   1.323       .  A
N927        N945   1.326       .  A
N927        N932   1.324       .  A
N927      Co1364   2.124   1_545  S
C928        N932   1.354       .  A
C928        C956   1.444       .  S
N929        C944   1.335       .  A
N929       Co951   2.109       .  S
C930        N958   1.333       .  A
C930        C933   1.443       .  S
C930        H964   1.082       .  S
C933        N954   1.351       .  A
C933        C982   1.442       .  S
N934        N940   1.314       .  A
N935        C961   1.333       .  A
N935        N937   1.315       .  A
N935      Co1395   2.045   1_545  S
N936        C950   1.353       .  A
N937        N965   1.334       .  A
N937      Co1399   2.098   1_545  S
H938        C961   1.082       .  S
H939        C956   1.082       .  S
N940      Co1364   2.043   1_545  S
N942        N954   1.321       .  A
N942        N958   1.326       .  A
N942      Co1395   2.111   1_545  S
C943        N947   1.343       .  A
C943        C957   1.461       .  S
C944        C963   1.459       .  S
C944        H948   1.081       .  S
N945        C956   1.333       .  A
C949        N965   1.356       .  A
C949        C961   1.443       .  S
C949        C986   1.471       .  S
Co951      N1379   2.045       .  S
Co951      N1386   2.111       .  S
Co951      Cl962   2.394       .  S
N952        C963   1.340       .  A
C953        C972   1.466       .  S
Co955      N1381   2.098       .  S
Co955      Cl962   2.495       .  S
N958      Co1362   2.048   1_545  S
C963        C968   1.445       .  S
C966        N967   1.342       .  A
C966        N971   1.361       .  A
C966       C1026   1.452       .  S
N967        C968   1.342       .  A
C968        N969   1.358       .  A
N969        C970   1.361       .  A
C970        N971   1.364       .  A
C970       C1098   1.483       .  S
C972        N973   1.348       .  A
C972        N977   1.364       .  A
N973        C974   1.349       .  A
C974        N975   1.367       .  A
C974       C1020   1.464       .  S
N975        C976   1.369       .  A
C976        N977   1.369       .  A
C976       C1065   1.504       .  S
C978        N979   1.360       .  A
C978        N983   1.358       .  A
C978       C1132   1.474       .  S
N979        C980   1.358       .  A
C980        N981   1.343       .  A
C980       C1030   1.442       .  S
N981        C982   1.342       .  A
C982        N983   1.357       .  A
C984        N985   1.370       .  A
C984        N989   1.370       .  A
C984       C1168   1.508       .  S
N985        C986   1.366       .  A
C986        N987   1.351       .  A
N987        C988   1.351       .  A
C988        N989   1.369       .  A
C988       C1005   1.471       .  S
C990       N1008   1.355       .  A
C990       C1027   1.447       .  S
N991       N1008   1.324       .  A
N991       N1013   1.325       .  A
N991      Co1028   2.127       .  S
C992       N1017   1.335       .  A
C992       C1030   1.457       .  S
C992       H1037   1.081       .  S
H993       C1034   1.082       .  S
C994       N1018   1.332       .  A
C994        C998   1.443       .  S
C994       H1023   1.082       .  S
Co995      N1013   2.055       .  S
Co995      N1003   2.092       .  S
Co995      N1035   2.101       .  S
Co995      N1011   2.049       .  S
Co995     Cl1039   2.492       .  S
N996       C1034   1.331       .  A
N996       N1003   1.316       .  A
N996       Co997   2.041       .  S
Co997      N1000   2.116       .  S
Co997      N1017   2.106       .  S
Co997      N1004   2.049       .  S
Co997     Cl1039   2.398       .  S
C998       N1036   1.353       .  A
N999       N1006   1.314       .  A
N999       N1029   1.331       .  A
N999      Co1032   2.096       .  S
N1000      N1018   1.325       .  A
N1000      N1036   1.324       .  A
N1001      C1030   1.339       .  A
N1001      N1011   1.320       .  A
H1002      C1027   1.082       .  S
N1003      N1024   1.333       .  A
N1004      N1022   1.315       .  A
N1004      N1009   1.320       .  A
C1005      N1009   1.339       .  A
C1005      C1033   1.470       .  S
N1006      C1021   1.331       .  A
N1006     Co1028   2.037       .  S
C1007      N1035   1.353       .  A
C1007      C1010   1.471       .  S
C1007      H1041   1.081       .  S
C1010      N1031   1.339       .  A
N1011      N1017   1.328       .  A
N1012      C1038   1.336       .  A
N1012      N1014   1.327       .  A
N1012     Co1028   2.116       .  S
N1013      C1027   1.336       .  A
N1014      N1042   1.323       .  A
N1014     Co1032   2.056       .  S
H1015      C1038   1.082       .  S
H1016      C1033   1.081       .  S
N1018     Co1032   2.048       .  S
N1019      N1031   1.319       .  A
N1019      N1035   1.314       .  A
N1019     Co1028   2.043       .  S
C1020      N1024   1.354       .  A
C1020      C1034   1.442       .  S
C1021      C1040   1.443       .  S
C1021      H1025   1.082       .  S
N1022      C1033   1.354       .  A
N1022     Co1032   2.098       .  S
C1026      N1042   1.342       .  A
C1026      C1038   1.460       .  S
Co1028    Cl1039   2.398       .  S
N1029      C1040   1.355       .  A
Co1032    Cl1039   2.491       .  S
N1043      C1492   1.355       .  A
N1043      C1047   1.355       .  A
N1043      H1075   1.037       .  S
N1044      C1051   1.354       .  A
N1044      C1052   1.353       .  A
N1045      C1494   1.364       .  A
N1045      C1049   1.364       .  A
N1045      H1076   1.033       .  S
N1046      C1053   1.354       .  A
N1046      C1054   1.354       .  A
C1047      C1055   1.387       .  A
C1047      C1063   1.417       .  A
C1048      N1487   1.355   1_545  A
C1048      C1064   1.417       .  A
C1048      C1500   1.387       .  A
C1049      C1057   1.388       .  A
C1049      C1066   1.441       .  A
C1050      N1489   1.364   1_545  A
C1050      C1065   1.440       .  A
C1050      C1502   1.388       .  A
C1051      C1063   1.414       .  A
C1051      C1059   1.385       .  A
C1052      C1066   1.420       .  A
C1052      C1060   1.390       .  A
C1053      C1061   1.386       .  A
C1053      C1064   1.415       .  A
C1054      C1062   1.390       .  A
C1054      C1065   1.421       .  A
C1055      H1067   1.082       .  S
C1055      C1056   1.378       .  A
C1056      H1512   1.082       .  S
C1056      C1492   1.387       .  A
C1057      H1069   1.082       .  S
C1057      C1058   1.391       .  A
C1058      H1514   1.082       .  S
C1058      C1494   1.388       .  A
C1059      H1071   1.082       .  S
C1059      C1060   1.367       .  A
C1060      H1072   1.082       .  S
C1061      H1073   1.082       .  S
C1061      C1062   1.368       .  A
C1062      H1074   1.082       .  S
C1063      C1278   1.483       .  S
C1064      C1211   1.483       .  S
H1068      C1500   1.082       .  S
H1070      C1502   1.082       .  S
N1077      C1082   1.356       .  A
N1077      H1109   1.032       .  S
N1078      C1085   1.354   1_556  A
N1078      C1086   1.353       .  A
N1079      C1084   1.363       .  A
N1079      H1110   1.030       .  S
N1080      C1087   1.353   1_556  A
N1080      C1088   1.352       .  A
C1081      C1089   1.387   1_655  A
C1081      C1097   1.421       .  A
C1082      C1098   1.421       .  A
C1082      C1090   1.387       .  A
C1083      C1091   1.388   1_655  A
C1083      C1100   1.441       .  A
C1084      C1099   1.441       .  A
C1084      C1092   1.388       .  A
C1085      C1097   1.417       .  A
C1085      C1093   1.387   1_554  A
C1086      C1100   1.421       .  A
C1086      C1094   1.390       .  A
C1087      C1095   1.386   1_554  A
C1087      C1098   1.415       .  A
C1088      C1096   1.391       .  A
C1088      C1099   1.421       .  A
C1089      H1101   1.082   1_455  S
C1090      H1102   1.082       .  S
C1091      H1103   1.082       .  S
C1092      H1104   1.082       .  S
C1093      H1105   1.082   1_556  S
C1093      C1094   1.368       .  A
C1094      H1106   1.082       .  S
C1095      H1107   1.083   1_556  S
C1095      C1096   1.368       .  A
C1096      H1108   1.082       .  S
C1099      C1201   1.500       .  S
C1100      C1187   1.502       .  S
N1111      C1116   1.351       .  A
N1111      H1143   1.034       .  S
N1112      C1119   1.356       .  A
N1112      C1120   1.353       .  A
N1113      C1118   1.365       .  A
N1113      H1144   1.032       .  S
N1114      C1121   1.353       .  A
N1114      C1122   1.355       .  A
C1115      C1131   1.418       .  A
C1116      C1132   1.417       .  A
C1116      C1124   1.388       .  A
C1117      C1134   1.442       .  A
C1118      C1133   1.442       .  A
C1118      C1126   1.388       .  A
C1119      C1131   1.415       .  A
C1119      C1127   1.383       .  A
C1120      C1134   1.422       .  A
C1120      C1128   1.391       .  A
C1121      C1129   1.387       .  A
C1121      C1132   1.417       .  A
C1122      C1130   1.389       .  A
C1122      C1133   1.421       .  A
C1123      C1124   1.377       .  A
C1124      H1136   1.082       .  S
C1125      C1126   1.391       .  A
C1126      H1138   1.082       .  S
C1127      H1139   1.082       .  S
C1127      C1128   1.367       .  A
C1128      H1140   1.082       .  S
C1129      H1141   1.082       .  S
C1129      C1130   1.368       .  A
C1130      H1142   1.082       .  S
C1133      C1203   1.508       .  S
C1134      C1270   1.500       .  S
N1145      C1150   1.357       .  A
N1145      C1593   1.353       .  A
N1145      H1177   1.036       .  S
N1146      C1153   1.352       .  A
N1146      C1154   1.354       .  A
N1147      C1152   1.362       .  A
N1147      C1595   1.365       .  A
N1147      H1178   1.034   1_554  S
N1148      C1155   1.355       .  A
N1148      C1156   1.351       .  A
C1149      N1589   1.353   1_545  A
C1149      C1601   1.388       .  A
C1149      C1165   1.418       .  A
C1150      C1166   1.418       .  A
C1150      C1158   1.386       .  A
C1151      N1591   1.365   1_545  A
C1151      C1603   1.387       .  A
C1151      C1168   1.440       .  A
C1152      C1167   1.440       .  A
C1152      C1160   1.388       .  A
C1153      C1165   1.415       .  A
C1153      C1161   1.387       .  A
C1154      C1168   1.418   1_556  A
C1154      C1162   1.388       .  A
C1155      C1163   1.384       .  A
C1155      C1166   1.413       .  A
C1156      C1164   1.391       .  A
C1156      C1167   1.419   1_556  A
C1157      H1613   1.082       .  S
C1157      C1593   1.388       .  A
C1157      C1158   1.379       .  A
C1158      H1170   1.082       .  S
C1159      H1615   1.082       .  S
C1159      C1595   1.387       .  A
C1159      C1160   1.391       .  A
C1160      H1172   1.082       .  S
C1161      H1173   1.082       .  S
C1161      C1162   1.369       .  A
C1162      H1174   1.082       .  S
C1163      H1175   1.082       .  S
C1163      C1164   1.369       .  A
C1164      H1176   1.082       .  S
C1165      C1191   1.476       .  S
C1166      C1183   1.489       .  S
H1169      C1601   1.082       .  S
H1171      C1603   1.082       .  S
C1179      N1180   1.347       .  A
C1179      N1184   1.363       .  A
C1179      C1280   1.458       .  S
N1180      C1181   1.347       .  A
C1181      N1182   1.360       .  A
C1181      C1245   1.454       .  S
N1182      C1183   1.362       .  A
C1183      N1184   1.364       .  A
C1185      N1186   1.365       .  A
C1185      N1190   1.349       .  A
C1185      C1255   1.466       .  S
N1186      C1187   1.369       .  A
C1187      N1188   1.369       .  A
N1188      C1189   1.366       .  A
C1189      N1190   1.349       .  A
C1189      C1310   1.463       .  S
C1191      N1192   1.360       .  A
C1191      N1196   1.359       .  A
N1192      C1193   1.359       .  A
C1193      N1194   1.343       .  A
C1193      C1235   1.446       .  S
N1194      C1195   1.343       .  A
C1195      N1196   1.357       .  A
C1195      C1320   1.442       .  S
C1197      N1198   1.352       .  A
C1197      N1202   1.364       .  A
C1197      C1300   1.468       .  S
N1198      C1199   1.352       .  A
C1199      N1200   1.366       .  A
C1199      C1215   1.466       .  S
N1200      C1201   1.367       .  A
C1201      N1202   1.368       .  A
C1203      N1204   1.369       .  A
C1203      N1208   1.370       .  A
N1204      C1205   1.366       .  A
C1205      N1206   1.351       .  A
C1205      C1251   1.471       .  S
N1206      C1207   1.351       .  A
C1207      N1208   1.368       .  A
C1207      C1295   1.469       .  S
C1209      N1210   1.361       .  A
C1209      N1214   1.348       .  A
C1209      C1230   1.451       .  S
N1210      C1211   1.359       .  A
C1211      N1212   1.358       .  A
N1212      C1213   1.359       .  A
C1213      N1214   1.347       .  A
C1213      C1288   1.449       .  S
C1215      N1233   1.338       .  A
C1215      C1252   1.468       .  S
N1216      N1233   1.318       .  A
N1216      N1238   1.315       .  A
N1216     Co1253   2.041       .  S
C1217      N1242   1.332       .  A
C1217      C1255   1.443       .  S
C1217      H1262   1.082       .  S
H1218      C1259   1.081       .  S
C1219      N1243   1.352       .  A
C1219      C1223   1.467       .  S
C1219      H1248   1.081       .  S
Co1220     N1238   2.095       .  S
Co1220     N1228   2.057       .  S
Co1220     N1260   2.051       .  S
Co1220     N1236   2.095       .  S
Co1220    Cl1264   2.493       .  S
N1221      C1259   1.338       .  A
N1221      N1228   1.327       .  A
N1221     Co1222   2.118       .  S
Co1222     N1225   2.036       .  S
Co1222     N1242   2.040       .  S
Co1222     N1229   2.123       .  S
Co1222    Cl1264   2.394       .  S
C1223      N1261   1.337       .  A
C1223      C1268   1.462       .  S
N1224      N1231   1.327       .  A
N1224      N1254   1.321       .  A
N1224     Co1257   2.050       .  S
N1225      N1243   1.314       .  A
N1225      N1261   1.317       .  A
N1226      C1255   1.355       .  A
N1226      N1236   1.333       .  A
H1227      C1252   1.081       .  S
N1228      N1249   1.322       .  A
N1229      N1247   1.326       .  A
N1229      N1234   1.323       .  A
C1230      N1234   1.353       .  A
C1230      C1258   1.445       .  S
N1231      C1246   1.336       .  A
N1231     Co1253   2.114       .  S
C1232      N1260   1.334       .  A
C1232      C1235   1.443       .  S
C1232      H1266   1.082       .  S
C1235      N1256   1.353       .  A
N1236      N1242   1.314       .  A
N1237      C1263   1.334       .  A
N1237      N1239   1.315       .  A
N1237     Co1253   2.047       .  S
N1238      C1252   1.352       .  A
N1239      N1267   1.334       .  A
N1239     Co1257   2.099       .  S
H1240      C1263   1.082       .  S
H1241      C1258   1.082       .  S
N1243     Co1257   2.092       .  S
N1244      N1256   1.321       .  A
N1244      N1260   1.326       .  A
N1244     Co1253   2.116       .  S
C1245      N1249   1.343       .  A
C1245      C1259   1.461       .  S
C1246      C1265   1.460       .  S
C1246      H1250   1.081       .  S
N1247      C1258   1.334       .  A
N1247     Co1257   2.049       .  S
C1251      N1267   1.356       .  A
C1251      C1263   1.445       .  S
Co1253    Cl1264   2.395       .  S
N1254      C1265   1.340       .  A
Co1257    Cl1264   2.494       .  S
C1265      C1276   1.449       .  S
C1268      N1269   1.366       .  A
C1268      N1273   1.350       .  A
N1269      C1270   1.368       .  A
C1270      N1271   1.367       .  A
N1271      C1272   1.364       .  A
C1272      N1273   1.349       .  A
C1272      C1330   1.462       .  S
C1274      N1275   1.343       .  A
C1274      N1279   1.361       .  A
C1274      C1316   1.452       .  S
N1275      C1276   1.342       .  A
C1276      N1277   1.359       .  A
N1277      C1278   1.363       .  A
C1278      N1279   1.364       .  A
C1280      N1298   1.355       .  A
C1280      C1317   1.447       .  S
N1281      N1298   1.324       .  A
N1281      N1303   1.325       .  A
C1282      N1307   1.335       .  A
C1282      C1320   1.458       .  S
C1282      H1327   1.082       .  S
H1283      C1324   1.082       .  S
C1284      N1308   1.331       .  A
C1284      C1288   1.442       .  S
C1284      H1313   1.082   1_545  S
Co1285     N1769   2.098       .  S
Co1285     N1301   2.049   1_565  S
Co1285    Cl1329   2.491       .  S
N1286      C1324   1.330       .  A
N1286      N1293   1.315       .  A
Co1287     N1307   2.107       .  S
Co1287     N1294   2.046       .  S
Co1287    Cl1329   2.396   1_545  S
C1288      N1326   1.354       .  A
N1289      N1296   1.314       .  A
N1289      N1319   1.331       .  A
N1290      N1308   1.325       .  A
N1290      N1326   1.324       .  A
N1291      C1320   1.339       .  A
N1291      N1301   1.319       .  A
H1292      C1317   1.082       .  S
N1293      N1314   1.333       .  A
N1294      N1312   1.314       .  A
N1294      N1299   1.319       .  A
C1295      N1299   1.339       .  A
C1295      C1323   1.469       .  S
N1296      C1311   1.331       .  A
C1297      N1325   1.352       .  A
C1297      C1300   1.469       .  S
C1297      H1331   1.081       .  S
C1300      N1321   1.339       .  A
N1301      N1307   1.327       .  A
N1302      C1328   1.335       .  A
N1302      N1304   1.328       .  A
N1302     Co1318   2.119       .  S
N1303      C1317   1.336       .  A
N1304      N1332   1.323       .  A
N1304     Co1322   2.053       .  S
H1305      C1328   1.081       .  S
H1306      C1323   1.081       .  S
N1309      N1321   1.319       .  A
N1309      N1325   1.314       .  A
N1309     Co1318   2.043       .  S
C1310      N1314   1.355       .  A
C1310      C1324   1.441       .  S
C1311      C1330   1.443       .  S
C1311      H1315   1.082       .  S
N1312      C1323   1.354       .  A
N1312     Co1766   2.095   1_545  S
C1316      N1332   1.342       .  A
C1316      C1328   1.460       .  S
Co1318    Cl1773   2.395       .  S
N1319      C1330   1.354       .  A
Co1322     N1756   2.095       .  S
Co1322    Cl1773   2.493       .  S
N1325     Co1729   2.098       .  S
Cl1329    Co1762   2.395       .  S
Cl1329    Co1766   2.493       .  S
C1333      N1334   1.347       .  A
C1333      N1338   1.362       .  A
C1333      C1434   1.458       .  S
N1334      C1335   1.348       .  A
C1335      N1336   1.361       .  A
C1335      C1387   1.456       .  S
N1336      C1337   1.363       .  A
C1337      N1338   1.363       .  A
C1337      C1575   1.489       .  S
C1339      N1340   1.351       .  A
C1339      N1344   1.366       .  A
C1339      C1365   1.464       .  S
N1340      C1341   1.350       .  A
C1341      N1342   1.363       .  A
C1341      C1484   1.463       .  S
N1342      C1343   1.367       .  A
C1343      N1344   1.367       .  A
C1343      C1611   1.497       .  S
C1345      N1346   1.352       .  A
C1345      N1350   1.364       .  A
C1345      C1454   1.469       .  S
N1346      C1347   1.353       .  A
C1347      N1348   1.367       .  A
C1347      C1357   1.469       .  S
N1348      C1349   1.368       .  A
C1349      N1350   1.368       .  A
C1349      C1510   1.504       .  S
C1351      N1352   1.362       .  A
C1351      N1356   1.347       .  A
C1351      C1372   1.452       .  S
N1352      C1353   1.360       .  A
C1353      N1354   1.358       .  A
C1353      C1541   1.484       .  S
N1354      C1355   1.359       .  A
C1355      N1356   1.347       .  A
C1355      C1442   1.449       .  S
C1357      N1375   1.339       .  A
C1357      C1394   1.469       .  S
N1358      N1375   1.319       .  A
N1358      N1380   1.315       .  A
N1358     Co1395   2.044       .  S
C1359      N1384   1.332       .  A
C1359      C1397   1.444       .  S
C1359      H1404   1.082       .  S
H1360      C1401   1.081       .  S
C1361      N1385   1.352       .  A
C1361      C1365   1.467       .  S
Co1362     N1380   2.095       .  S
Co1362    Cl1406   2.494       .  S
N1363      C1401   1.338       .  A
N1363      N1370   1.327       .  A
N1363     Co1364   2.121       .  S
Co1364     N1367   2.042       .  S
C1365      N1403   1.338       .  A
N1366      N1373   1.327       .  A
N1366      N1396   1.320       .  A
N1366     Co1399   2.048       .  S
N1367      N1385   1.315       .  A
N1367      N1403   1.318       .  A
N1368      C1397   1.354       .  A
N1368      N1378   1.332       .  A
H1369      C1394   1.081       .  S
N1370      N1391   1.323       .  A
N1371      N1389   1.326       .  A
N1371      N1376   1.324       .  A
C1372      N1376   1.354       .  A
C1372      C1400   1.444       .  S
N1373      C1388   1.335       .  A
N1373     Co1395   2.109       .  S
C1374      N1402   1.333       .  A
C1374      C1377   1.443       .  S
C1374      H1408   1.082       .  S
C1377      N1398   1.351       .  A
C1377      C1426   1.442       .  S
N1378      N1384   1.314       .  A
N1379      C1405   1.333       .  A
N1379      N1381   1.315       .  A
N1380      C1394   1.353       .  A
N1381      N1409   1.334       .  A
H1382      C1405   1.082       .  S
H1383      C1400   1.082       .  S
N1386      N1398   1.321       .  A
N1386      N1402   1.326       .  A
C1387      N1391   1.343       .  A
C1387      C1401   1.461       .  S
C1388      C1407   1.459       .  S
C1388      H1392   1.081       .  S
N1389      C1400   1.333       .  A
C1393      N1409   1.356       .  A
C1393      C1405   1.443       .  S
C1393      C1430   1.471       .  S
Co1395    Cl1406   2.394       .  S
N1396      C1407   1.340       .  A
C1397      C1416   1.466       .  S
Co1399    Cl1406   2.495       .  S
C1407      C1412   1.445       .  S
C1410      N1411   1.342       .  A
C1410      N1415   1.361       .  A
C1410      C1470   1.452       .  S
N1411      C1412   1.342       .  A
C1412      N1413   1.358       .  A
N1413      C1414   1.361       .  A
C1414      N1415   1.364       .  A
C1414      C1542   1.483       .  S
C1416      N1417   1.348       .  A
C1416      N1421   1.364       .  A
N1417      C1418   1.349       .  A
C1418      N1419   1.367       .  A
C1418      C1464   1.464       .  S
N1419      C1420   1.369       .  A
C1420      N1421   1.369       .  A
C1420      C1509   1.504       .  S
C1422      N1423   1.360       .  A
C1422      N1427   1.358       .  A
C1422      C1576   1.474       .  S
N1423      C1424   1.358       .  A
C1424      N1425   1.343       .  A
C1424      C1474   1.442       .  S
N1425      C1426   1.342       .  A
C1426      N1427   1.357       .  A
C1428      N1429   1.370       .  A
C1428      N1433   1.370       .  A
C1428      C1612   1.508       .  S
N1429      C1430   1.366       .  A
C1430      N1431   1.351       .  A
N1431      C1432   1.351       .  A
C1432      N1433   1.369       .  A
C1432      C1449   1.471       .  S
C1434      N1452   1.355       .  A
C1434      C1471   1.447       .  S
N1435      N1452   1.324       .  A
N1435      N1457   1.325       .  A
N1435     Co1472   2.127       .  S
C1436      N1461   1.335       .  A
C1436      C1474   1.457       .  S
C1436      H1481   1.081       .  S
H1437      C1478   1.082       .  S
C1438      N1462   1.332       .  A
C1438      C1442   1.443       .  S
C1438      H1467   1.082       .  S
Co1439     N1457   2.055       .  S
Co1439     N1447   2.092       .  S
Co1439     N1479   2.101       .  S
Co1439     N1455   2.049       .  S
Co1439    Cl1483   2.492       .  S
N1440      C1478   1.331       .  A
N1440      N1447   1.316       .  A
N1440     Co1441   2.041       .  S
Co1441     N1444   2.116       .  S
Co1441     N1461   2.106       .  S
Co1441     N1448   2.049       .  S
Co1441    Cl1483   2.398       .  S
C1442      N1480   1.353       .  A
N1443      N1450   1.314       .  A
N1443      N1473   1.331       .  A
N1443     Co1476   2.096       .  S
N1444      N1462   1.325       .  A
N1444      N1480   1.324       .  A
N1445      C1474   1.339       .  A
N1445      N1455   1.320       .  A
H1446      C1471   1.082       .  S
N1447      N1468   1.333       .  A
N1448      N1466   1.315       .  A
N1448      N1453   1.320       .  A
C1449      N1453   1.339       .  A
C1449      C1477   1.470       .  S
N1450      C1465   1.331       .  A
N1450     Co1472   2.037       .  S
C1451      N1479   1.353       .  A
C1451      C1454   1.471       .  S
C1451      H1485   1.081       .  S
C1454      N1475   1.339       .  A
N1455      N1461   1.328       .  A
N1456      C1482   1.336       .  A
N1456      N1458   1.327       .  A
N1456     Co1472   2.116       .  S
N1457      C1471   1.336       .  A
N1458      N1486   1.323       .  A
N1458     Co1476   2.056       .  S
H1459      C1482   1.082       .  S
H1460      C1477   1.081       .  S
N1462     Co1476   2.048       .  S
N1463      N1475   1.319       .  A
N1463      N1479   1.314       .  A
N1463     Co1472   2.043       .  S
C1464      N1468   1.354       .  A
C1464      C1478   1.442       .  S
C1465      C1484   1.443       .  S
C1465      H1469   1.082       .  S
N1466      C1477   1.354       .  A
N1466     Co1476   2.098       .  S
C1470      N1486   1.342       .  A
C1470      C1482   1.460       .  S
Co1472    Cl1483   2.398       .  S
N1473      C1484   1.355       .  A
Co1476    Cl1483   2.491       .  S
N1487      C1491   1.355       .  A
N1487      H1519   1.037       .  S
N1488      C1495   1.354       .  A
N1488      C1496   1.353       .  A
N1489      C1493   1.364       .  A
N1489      H1520   1.033       .  S
N1490      C1497   1.354       .  A
N1490      C1498   1.354       .  A
C1491      C1499   1.387       .  A
C1491      C1507   1.417       .  A
C1492      C1508   1.417       .  A
C1493      C1501   1.388       .  A
C1493      C1510   1.441       .  A
C1494      C1509   1.440       .  A
C1495      C1507   1.414       .  A
C1495      C1503   1.385       .  A
C1496      C1510   1.420       .  A
C1496      C1504   1.390       .  A
C1497      C1505   1.386       .  A
C1497      C1508   1.415       .  A
C1498      C1506   1.390       .  A
C1498      C1509   1.421       .  A
C1499      H1511   1.082       .  S
C1499      C1500   1.378   1_565  A
C1501      H1513   1.082       .  S
C1501      C1502   1.391   1_565  A
C1503      H1515   1.082       .  S
C1503      C1504   1.367       .  A
C1504      H1516   1.082       .  S
C1505      H1517   1.082       .  S
C1505      C1506   1.368       .  A
C1506      H1518   1.082       .  S
C1507      C1722   1.483       .  S
C1508      C1655   1.483       .  S
N1521      C1526   1.356       .  A
N1521      H1553   1.032       .  S
N1522      C1529   1.354   1_556  A
N1522      C1530   1.353       .  A
N1523      C1528   1.363       .  A
N1523      H1554   1.030       .  S
N1524      C1531   1.353   1_556  A
N1524      C1532   1.352       .  A
C1525      C1533   1.387   1_655  A
C1525      C1541   1.421       .  A
C1526      C1542   1.421       .  A
C1526      C1534   1.387       .  A
C1527      C1535   1.388   1_655  A
C1527      C1544   1.441       .  A
C1528      C1543   1.441       .  A
C1528      C1536   1.388       .  A
C1529      C1541   1.417       .  A
C1529      C1537   1.387   1_554  A
C1530      C1544   1.421       .  A
C1530      C1538   1.390       .  A
C1531      C1539   1.386   1_554  A
C1531      C1542   1.415       .  A
C1532      C1540   1.391       .  A
C1532      C1543   1.421       .  A
C1533      H1545   1.082   1_455  S
C1534      H1546   1.082       .  S
C1535      H1547   1.082       .  S
C1536      H1548   1.082       .  S
C1537      H1549   1.082   1_556  S
C1537      C1538   1.368       .  A
C1538      H1550   1.082       .  S
C1539      H1551   1.083   1_556  S
C1539      C1540   1.368       .  A
C1540      H1552   1.082       .  S
C1543      C1645   1.500       .  S
C1544      C1631   1.502       .  S
N1555      C1560   1.351       .  A
N1555      H1587   1.034       .  S
N1556      C1563   1.356       .  A
N1556      C1564   1.353       .  A
N1557      C1562   1.365       .  A
N1557      H1588   1.032       .  S
N1558      C1565   1.353       .  A
N1558      C1566   1.355       .  A
C1559      C1575   1.418       .  A
C1560      C1576   1.417       .  A
C1560      C1568   1.388       .  A
C1561      C1578   1.442       .  A
C1562      C1577   1.442       .  A
C1562      C1570   1.388       .  A
C1563      C1575   1.415       .  A
C1563      C1571   1.383       .  A
C1564      C1578   1.422       .  A
C1564      C1572   1.391       .  A
C1565      C1573   1.387       .  A
C1565      C1576   1.417       .  A
C1566      C1574   1.389       .  A
C1566      C1577   1.421       .  A
C1567      C1568   1.377       .  A
C1568      H1580   1.082       .  S
C1569      C1570   1.391       .  A
C1570      H1582   1.082       .  S
C1571      H1583   1.082       .  S
C1571      C1572   1.367       .  A
C1572      H1584   1.082       .  S
C1573      H1585   1.082       .  S
C1573      C1574   1.368       .  A
C1574      H1586   1.082       .  S
C1577      C1647   1.508       .  S
C1578      C1714   1.500       .  S
N1589      C1594   1.357       .  A
N1589      H1621   1.036       .  S
N1590      C1597   1.352       .  A
N1590      C1598   1.354       .  A
N1591      C1596   1.362       .  A
N1591      H1622   1.034   1_554  S
N1592      C1599   1.355       .  A
N1592      C1600   1.351       .  A
C1593      C1609   1.418       .  A
C1594      C1610   1.418       .  A
C1594      C1602   1.386       .  A
C1595      C1612   1.440       .  A
C1596      C1611   1.440       .  A
C1596      C1604   1.388       .  A
C1597      C1609   1.415       .  A
C1597      C1605   1.387       .  A
C1598      C1612   1.418   1_556  A
C1598      C1606   1.388       .  A
C1599      C1607   1.384       .  A
C1599      C1610   1.413       .  A
C1600      C1608   1.391       .  A
C1600      C1611   1.419   1_556  A
C1601      C1602   1.379   1_545  A
C1602      H1614   1.082       .  S
C1603      C1604   1.391   1_545  A
C1604      H1616   1.082       .  S
C1605      H1617   1.082       .  S
C1605      C1606   1.369       .  A
C1606      H1618   1.082       .  S
C1607      H1619   1.082       .  S
C1607      C1608   1.369       .  A
C1608      H1620   1.082       .  S
C1609      C1635   1.476       .  S
C1610      C1627   1.489       .  S
C1623      N1624   1.347       .  A
C1623      N1628   1.363       .  A
C1623      C1724   1.458       .  S
N1624      C1625   1.347       .  A
C1625      N1626   1.360       .  A
C1625      C1689   1.454       .  S
N1626      C1627   1.362       .  A
C1627      N1628   1.364       .  A
C1629      N1630   1.365       .  A
C1629      N1634   1.349       .  A
C1629      C1699   1.466       .  S
N1630      C1631   1.369       .  A
C1631      N1632   1.369       .  A
N1632      C1633   1.366       .  A
C1633      N1634   1.349       .  A
C1633      C1754   1.463       .  S
C1635      N1636   1.360       .  A
C1635      N1640   1.359       .  A
N1636      C1637   1.359       .  A
C1637      N1638   1.343       .  A
C1637      C1679   1.446       .  S
N1638      C1639   1.343       .  A
C1639      N1640   1.357       .  A
C1639      C1764   1.442       .  S
C1641      N1642   1.352       .  A
C1641      N1646   1.364       .  A
C1641      C1744   1.468       .  S
N1642      C1643   1.352       .  A
C1643      N1644   1.366       .  A
C1643      C1659   1.466       .  S
N1644      C1645   1.367       .  A
C1645      N1646   1.368       .  A
C1647      N1648   1.369       .  A
C1647      N1652   1.370       .  A
N1648      C1649   1.366       .  A
C1649      N1650   1.351       .  A
C1649      C1695   1.471       .  S
N1650      C1651   1.351       .  A
C1651      N1652   1.368       .  A
C1651      C1739   1.469       .  S
C1653      N1654   1.361       .  A
C1653      N1658   1.348       .  A
C1653      C1674   1.451       .  S
N1654      C1655   1.359       .  A
C1655      N1656   1.358       .  A
N1656      C1657   1.359       .  A
C1657      N1658   1.347       .  A
C1657      C1732   1.449       .  S
C1659      N1677   1.338       .  A
C1659      C1696   1.468       .  S
N1660      N1677   1.318       .  A
N1660      N1682   1.315       .  A
N1660     Co1697   2.041       .  S
C1661      N1686   1.332       .  A
C1661      C1699   1.443       .  S
C1661      H1706   1.082       .  S
H1662      C1703   1.081       .  S
C1663      N1687   1.352       .  A
C1663      C1667   1.467       .  S
C1663      H1692   1.081       .  S
Co1664     N1682   2.095       .  S
Co1664     N1672   2.057       .  S
Co1664     N1704   2.051       .  S
Co1664     N1680   2.095       .  S
Co1664    Cl1708   2.493       .  S
N1665      C1703   1.338       .  A
N1665      N1672   1.327       .  A
N1665     Co1666   2.118       .  S
Co1666     N1669   2.036       .  S
Co1666     N1686   2.040       .  S
Co1666     N1673   2.123       .  S
Co1666    Cl1708   2.394       .  S
C1667      N1705   1.337       .  A
C1667      C1712   1.462       .  S
N1668      N1675   1.327       .  A
N1668      N1698   1.321       .  A
N1668     Co1701   2.050       .  S
N1669      N1687   1.314       .  A
N1669      N1705   1.317       .  A
N1670      C1699   1.355       .  A
N1670      N1680   1.333       .  A
H1671      C1696   1.081       .  S
N1672      N1693   1.322       .  A
N1673      N1691   1.326       .  A
N1673      N1678   1.323       .  A
C1674      N1678   1.353       .  A
C1674      C1702   1.445       .  S
N1675      C1690   1.336       .  A
N1675     Co1697   2.114       .  S
C1676      N1704   1.334       .  A
C1676      C1679   1.443       .  S
C1676      H1710   1.082       .  S
C1679      N1700   1.353       .  A
N1680      N1686   1.314       .  A
N1681      C1707   1.334       .  A
N1681      N1683   1.315       .  A
N1681     Co1697   2.047       .  S
N1682      C1696   1.352       .  A
N1683      N1711   1.334       .  A
N1683     Co1701   2.099       .  S
H1684      C1707   1.082       .  S
H1685      C1702   1.082       .  S
N1687     Co1701   2.092       .  S
N1688      N1700   1.321       .  A
N1688      N1704   1.326       .  A
N1688     Co1697   2.116       .  S
C1689      N1693   1.343       .  A
C1689      C1703   1.461       .  S
C1690      C1709   1.460       .  S
C1690      H1694   1.081       .  S
N1691      C1702   1.334       .  A
N1691     Co1701   2.049       .  S
C1695      N1711   1.356       .  A
C1695      C1707   1.445       .  S
Co1697    Cl1708   2.395       .  S
N1698      C1709   1.340       .  A
Co1701    Cl1708   2.494       .  S
C1709      C1720   1.449       .  S
C1712      N1713   1.366       .  A
C1712      N1717   1.350       .  A
N1713      C1714   1.368       .  A
C1714      N1715   1.367       .  A
N1715      C1716   1.364       .  A
C1716      N1717   1.349       .  A
C1716      C1774   1.462       .  S
C1718      N1719   1.343       .  A
C1718      N1723   1.361       .  A
C1718      C1760   1.452       .  S
N1719      C1720   1.342       .  A
C1720      N1721   1.359       .  A
N1721      C1722   1.363       .  A
C1722      N1723   1.364       .  A
C1724      N1742   1.355       .  A
C1724      C1761   1.447       .  S
N1725      N1742   1.324       .  A
N1725      N1747   1.325       .  A
C1726      N1751   1.335       .  A
C1726      C1764   1.458       .  S
C1726      H1771   1.082       .  S
H1727      C1768   1.082       .  S
C1728      N1752   1.331       .  A
C1728      C1732   1.442       .  S
C1728      H1757   1.082       .  S
Co1729     N1745   2.049       .  S
Co1729    Cl1773   2.491       .  S
N1730      C1768   1.330       .  A
N1730      N1737   1.315       .  A
Co1731     N1751   2.107       .  S
Co1731     N1738   2.046       .  S
Co1731    Cl1773   2.396       .  S
C1732      N1770   1.354       .  A
N1733      N1740   1.314       .  A
N1733      N1763   1.331       .  A
N1734      N1752   1.325       .  A
N1734      N1770   1.324       .  A
N1735      C1764   1.339       .  A
N1735      N1745   1.319       .  A
H1736      C1761   1.082       .  S
N1737      N1758   1.333       .  A
N1738      N1756   1.314       .  A
N1738      N1743   1.319       .  A
C1739      N1743   1.339       .  A
C1739      C1767   1.469       .  S
N1740      C1755   1.331       .  A
C1741      N1769   1.352       .  A
C1741      C1744   1.469       .  S
C1741      H1775   1.081       .  S
C1744      N1765   1.339       .  A
N1745      N1751   1.327       .  A
N1746      C1772   1.335       .  A
N1746      N1748   1.328       .  A
N1746     Co1762   2.119       .  S
N1747      C1761   1.336       .  A
N1748      N1776   1.323       .  A
N1748     Co1766   2.053       .  S
H1749      C1772   1.081       .  S
H1750      C1767   1.081       .  S
N1753      N1765   1.319       .  A
N1753      N1769   1.314       .  A
N1753     Co1762   2.043       .  S
C1754      N1758   1.355       .  A
C1754      C1768   1.441       .  S
C1755      C1774   1.443       .  S
C1755      H1759   1.082       .  S
N1756      C1767   1.354       .  A
C1760      N1776   1.342       .  A
C1760      C1772   1.460       .  S
N1763      C1774   1.354       .  A
