geometry optimzed in LAMMPS
_audit_creation_date              2020-12-01 
_audit_creation_method            'lammps2cif' 
_symmetry_space_group_name_H-M    'P1' 
_symmetry_Int_Tables_number       1 
_symmetry_cell_setting            triclinic 
loop_ 
_symmetry_equiv_pos_as_xyz 
  x,y,z 
_cell_length_a                    27.6000476 
_cell_length_b                    27.67683897411092 
_cell_length_c                    42.13265322604249 
_cell_angle_alpha                 89.97906582104794 
_cell_angle_beta                  89.55529244931766 
_cell_angle_gamma                 90.00942062207537 
loop_ 
_atom_site_label 
_atom_site_type_symbol 
_atom_site_fract_x 
_atom_site_fract_y 
_atom_site_fract_z 
_atom_site_charge 
O1          O  0.44440422  0.09258288  0.11995300    -0.74200
O2          O  0.40739177  0.22574896  0.13219698    -0.74300
O3          O  0.44506945  0.15488243  0.16961709    -0.74300
O4          O  0.40830287  0.16401658  0.08284602    -0.74400
O5          O  0.33341056  0.13916632  0.09461038    -0.74300
O6          O  0.37051028  0.13113777  0.18286299    -0.74300
O7          O  0.33299990  0.20036155  0.14502021    -0.74200
O8          O  0.36957178  0.06930642  0.13279687    -0.74300
Ni9        Ni  0.42898432  0.16006163  0.12572103     1.25400
Ni10       Ni  0.34896499  0.13415722  0.13928728     1.25400
C11         C  0.41290976  0.05896909  0.12441020     0.88000
C12         C  0.36346658  0.23451532  0.14050191     0.87900
C13         C  0.41419300  0.14169861  0.19070289     0.87900
C14         C  0.36517574  0.15366542  0.07429898     0.88100
O15         O  0.44264465  0.82354427  0.12177616    -0.74200
O16         O  0.48863708  0.69360326  0.13594616    -0.74300
O17         O  0.44631828  0.76354852  0.17246746    -0.74300
O18         O  0.48333957  0.75318909  0.08543685    -0.74400
O19         O  0.55679354  0.78241772  0.09577587    -0.74300
O20         O  0.51918074  0.79282371  0.18427301    -0.74300
O21         O  0.56120408  0.72407504  0.14767646    -0.74200
O22         O  0.51628914  0.85164939  0.13272981    -0.74300
Ni23       Ni  0.46262167  0.75745218  0.12852301     1.25400
Ni24       Ni  0.54096742  0.78873926  0.14053962     1.25400
C25         C  0.47230871  0.85900610  0.12486340     0.88000
C26         C  0.53298071  0.68792269  0.14407394     0.87900
C27         C  0.47620641  0.78005157  0.19282089     0.87900
C28         C  0.52572141  0.76567055  0.07606024     0.88100
O29         O  0.44989535  0.10068034  0.89327173    -0.74200
O30         O  0.40577339  0.23208852  0.88088950    -0.74300
O31         O  0.40940632  0.17046617  0.93049390    -0.74300
O32         O  0.44775104  0.16281203  0.84351802    -0.74400
O33         O  0.37469897  0.13474059  0.83104261    -0.74300
O34         O  0.33577067  0.14255309  0.91910232    -0.74300
O35         O  0.33307618  0.20298618  0.86817753    -0.74200
O36         O  0.37608296  0.07398060  0.88148053    -0.74300
Ni37       Ni  0.43085167  0.16747527  0.88748165     1.25400
Ni38       Ni  0.35232860  0.13764102  0.87450817     1.25400
C39         C  0.41994389  0.06562155  0.88931162     0.88000
C40         C  0.36165120  0.23872385  0.87248886     0.87900
C41         C  0.36664945  0.15823685  0.93926623     0.87900
C42         C  0.41779829  0.14738621  0.82282399     0.88100
O43         O  0.44530277  0.82938141  0.89430616    -0.74200
O44         O  0.48580739  0.69675861  0.88250386    -0.74300
O45         O  0.48275523  0.75867428  0.93177118    -0.74300
O46         O  0.44650427  0.76667385  0.84485117    -0.71200
O47         O  0.52064390  0.79210429  0.83189579    -0.74300
O48         O  0.55731473  0.78473056  0.92036776    -0.74300
O49         O  0.55965860  0.72377756  0.86983287    -0.74200
O50         O  0.51987243  0.85410802  0.88200446    -0.74300
Ni51       Ni  0.46242119  0.76205405  0.88879072     1.25400
Ni52       Ni  0.54199012  0.78960338  0.87557343     1.25400
C53         C  0.47611997  0.86366901  0.88993939     0.88000
C54         C  0.53003577  0.68892554  0.87437479     0.87900
C55         C  0.52565713  0.76952384  0.94055303     0.87900
C56         C  0.47726203  0.78056220  0.82390295     0.88100
O57         O  0.44721712  0.82797951  0.62049539    -0.74200
O58         O  0.40533962  0.69639385  0.63358428    -0.74300
O59         O  0.40724011  0.75780987  0.58402741    -0.74300
O60         O  0.44675387  0.76577089  0.67043697    -0.74400
O61         O  0.37378811  0.79321042  0.68427015    -0.74300
O62         O  0.33346847  0.78483958  0.59669924    -0.74300
O63         O  0.33254932  0.72462178  0.64768034    -0.74200
O64         O  0.37336973  0.85411948  0.63352332    -0.74300
Ni65       Ni  0.42930435  0.76114414  0.62668399     1.25400
Ni66       Ni  0.35070760  0.79014390  0.64105752     1.25400
C67         C  0.41687639  0.86270584  0.62463142     0.88000
C68         C  0.36145568  0.68929778  0.64266337     0.87900
C69         C  0.36412775  0.76926841  0.57602603     0.87900
C70         C  0.41703535  0.78050789  0.69179122     0.88100
O71         O  0.44681284  0.09770791  0.62016215    -0.74200
O72         O  0.49059067  0.22894514  0.63390619    -0.74300
O73         O  0.48597497  0.16868397  0.58342307    -0.74300
O74         O  0.44977817  0.15871586  0.67057713    -0.74400
O75         O  0.52343115  0.13160547  0.68247438    -0.74300
O76         O  0.55956064  0.13971460  0.59381365    -0.74300
O77         O  0.56383820  0.19958330  0.64499302    -0.74200
O78         O  0.52067821  0.07121658  0.63186726    -0.74300
Ni79       Ni  0.46561224  0.16447457  0.62658898     1.25400
Ni80       Ni  0.54446740  0.13460043  0.63865712     1.25400
C81         C  0.47697842  0.06274731  0.62389971     0.88000
C82         C  0.53488547  0.23527240  0.64203533     0.87900
C83         C  0.52821470  0.15576409  0.57406172     0.87900
C84         C  0.48042176  0.14401607  0.69105517     0.88100
O85         O  0.44368560  0.82589272  0.39596474    -0.74200
O86         O  0.40238590  0.69424766  0.38233917    -0.74300
O87         O  0.44353312  0.76468319  0.34578909    -0.74300
O88         O  0.40414247  0.75494059  0.43245677    -0.74400
O89         O  0.33039591  0.78235828  0.42082932    -0.74300
O90         O  0.37028051  0.79152958  0.33278602    -0.74300
O91         O  0.32931893  0.72240506  0.36955795    -0.74200
O92         O  0.36980240  0.85171248  0.38354159    -0.74300
Ni93       Ni  0.42607088  0.75902626  0.38959480     1.25400
Ni94       Ni  0.34731717  0.78786280  0.37623467     1.25400
C95         C  0.41330079  0.86051598  0.39185170     0.88000
C96         C  0.35856052  0.68715225  0.37355382     0.87900
C97         C  0.41381080  0.77978557  0.32486285     0.87900
C98         C  0.36129745  0.76697426  0.44111027     0.88100
O99         O  0.44304105  0.09524033  0.39351111    -0.74200
O100        O  0.48634791  0.22676707  0.38136576    -0.74300
O101        O  0.44478402  0.15781889  0.34386466    -0.74300
O102        O  0.48270943  0.16485707  0.43050858    -0.74400
O103        O  0.55655645  0.13746305  0.41841487    -0.74300
O104        O  0.51789679  0.13027279  0.33042625    -0.74300
O105        O  0.55920083  0.19811041  0.36780765    -0.74200
O106        O  0.51692985  0.06902665  0.38076526    -0.74300
Ni107      Ni  0.46154725  0.16207152  0.38771716     1.25400
Ni108      Ni  0.54022716  0.13277179  0.37384256     1.25400
C109        C  0.47331320  0.06044470  0.38936964     0.88000
C110        C  0.53061125  0.23360814  0.37295614     0.87900
C111        C  0.47466857  0.14278411  0.32271592     0.87900
C112        C  0.52556699  0.15314169  0.43885627     0.88100
O113        O  0.08303837  0.45925849  0.12436607    -0.74200
O114        O  0.21586296  0.41891117  0.13427417    -0.74300
O115        O  0.15360191  0.42500027  0.08534855    -0.74300
O116        O  0.14535377  0.45481460  0.17338204    -0.74400
O117        O  0.12081680  0.37976461  0.18413059    -0.74300
O118        O  0.12703010  0.35012046  0.09435986    -0.74300
O119        O  0.18917026  0.34420345  0.14410688    -0.74200
O120        O  0.05829390  0.38425842  0.13471206    -0.74300
Ni121      Ni  0.15036538  0.44214431  0.12900243     1.25400
Ni122      Ni  0.12300151  0.36187252  0.13968658     1.25400
C123        C  0.04876387  0.42823796  0.12798072     0.88000
C124        C  0.22391452  0.37439546  0.14084442     0.87900
C125        C  0.14177078  0.38316415  0.07514787     0.87900
C126        C  0.13147723  0.42273021  0.19331874     0.88100
O127        O  0.81302966  0.45849926  0.12524329    -0.74200
O128        O  0.68126159  0.50265116  0.13726672    -0.74300
O129        O  0.74271991  0.49567563  0.08743291    -0.74300
O130        O  0.75069812  0.46364388  0.17511521    -0.74400
O131        O  0.77848076  0.53715552  0.18630825    -0.74300
O132        O  0.77041270  0.56988962  0.09688662    -0.74300
O133        O  0.71027472  0.57602068  0.14817141    -0.74200
O134        O  0.83938292  0.53284581  0.13548632    -0.74300
Ni135      Ni  0.74601758  0.47746832  0.13090983     1.25400
Ni136      Ni  0.77560052  0.55660850  0.14207171     1.25400
C137        C  0.84799743  0.48878240  0.12851502     0.88000
C138        C  0.67461322  0.54715366  0.14466870     0.87900
C139        C  0.75455725  0.53775225  0.07751031     0.87900
C140        C  0.76583172  0.49452572  0.19533025     0.88100
O141        O  0.08123458  0.46709532  0.89211449    -0.74200
O142        O  0.21425035  0.42538740  0.88013982    -0.74300
O143        O  0.14425790  0.46451318  0.84236568    -0.74300
O144        O  0.15168691  0.43006204  0.92980723    -0.74400
O145        O  0.12417499  0.35602761  0.91942815    -0.74300
O146        O  0.11935842  0.39011420  0.83046359    -0.74300
O147        O  0.18642726  0.35159053  0.86920740    -0.74200
O148        O  0.05646848  0.39282746  0.88017534    -0.74300
Ni149      Ni  0.14878076  0.44947355  0.88651344     1.25400
Ni150      Ni  0.12072661  0.37006153  0.87442868     1.25400
C151        C  0.04685565  0.43635930  0.88794600     0.88000
C152        C  0.22166448  0.38098705  0.87262083     0.87900
C153        C  0.13069224  0.43327169  0.82191371     0.87900
C154        C  0.13930779  0.38784918  0.93920614     0.88100
O155        O  0.81070166  0.46285032  0.89355856    -0.74200
O156        O  0.67849900  0.50419810  0.88122538    -0.74300
O157        O  0.75016205  0.46664343  0.84362366    -0.74300
O158        O  0.73879182  0.49838981  0.93119476    -0.74400
O159        O  0.76501534  0.57325527  0.92186540    -0.74300
O160        O  0.77741728  0.54051542  0.83256317    -0.74300
O161        O  0.70628759  0.57807452  0.87014232    -0.74200
O162        O  0.83621563  0.53783277  0.88386563    -0.74300
Ni163      Ni  0.74359485  0.48040809  0.88774053     1.25400
Ni164      Ni  0.77204658  0.56013469  0.87672292     1.25400
C165        C  0.84522775  0.49378423  0.89062956     0.88000
C166        C  0.67107658  0.54852106  0.87375682     0.87900
C167        C  0.76644291  0.49744868  0.82360278     0.87900
C168        C  0.74986145  0.54052075  0.94122552     0.88100
O169        O  0.81222778  0.46357610  0.61936866    -0.74200
O170        O  0.68188655  0.41971510  0.63670030    -0.74300
O171        O  0.75321615  0.46366708  0.67112587    -0.74300
O172        O  0.74068273  0.42129050  0.58539152    -0.74400
O173        O  0.77029789  0.34877293  0.59783474    -0.74300
O174        O  0.78215973  0.39146537  0.68463739    -0.74300
O175        O  0.71220050  0.34792493  0.65022288    -0.74200
O176        O  0.84025106  0.39083733  0.63248695    -0.74300
Ni177      Ni  0.74597911  0.44469384  0.62771861     1.25400
Ni178      Ni  0.77716693  0.36720481  0.64181949     1.25400
C179        C  0.84770320  0.43406842  0.62301625     0.88000
C180        C  0.67598302  0.37592707  0.64597352     0.87900
C181        C  0.76994067  0.43483658  0.69211631     0.87900
C182        C  0.75347537  0.37856645  0.57734104     0.88100
O183        O  0.08333594  0.46177266  0.61809101    -0.74200
O184        O  0.21455644  0.50519837  0.63120159    -0.74300
O185        O  0.14536000  0.46260297  0.66807394    -0.74300
O186        O  0.15320594  0.50316542  0.58157191    -0.74400
O187        O  0.12433805  0.57592808  0.59442610    -0.74300
O188        O  0.11705841  0.53493389  0.68193679    -0.74300
O189        O  0.18509618  0.57734028  0.64505096    -0.74200
O190        O  0.05612633  0.53473095  0.63159786    -0.74300
Ni191      Ni  0.15004273  0.48052831  0.62426639     1.25400
Ni192      Ni  0.11972221  0.55828984  0.63875709     1.25400
C193        C  0.04812470  0.49150309  0.62240743     0.88000
C194        C  0.22093005  0.54885655  0.64045147     0.87900
C195        C  0.13039898  0.49196516  0.68947402     0.87900
C196        C  0.14003102  0.54577866  0.57362375     0.88100
O197        O  0.80963690  0.46233844  0.39793723    -0.74200
O198        O  0.67878652  0.41780024  0.38513223    -0.74300
O199        O  0.73991480  0.42071201  0.43468884    -0.74300
O200        O  0.74824575  0.46102733  0.34817198    -0.74400
O201        O  0.77682143  0.38851042  0.33472548    -0.74300
O202        O  0.76895672  0.34784400  0.42229507    -0.74300
O203        O  0.70871195  0.34569081  0.37162856    -0.74200
O204        O  0.83739933  0.38921645  0.38509748    -0.74300
Ni205      Ni  0.74315392  0.44309336  0.39196359     1.25400
Ni206      Ni  0.77392930  0.36525067  0.37793759     1.25400
C207        C  0.84500953  0.43285845  0.39353153     0.88000
C208        C  0.67268109  0.37388700  0.37628284     0.87900
C209        C  0.75265704  0.37806304  0.44285391     0.87900
C210        C  0.76397682  0.43159010  0.32706646     0.88100
O211        O  0.08056791  0.46013469  0.39609804    -0.74200
O212        O  0.21251099  0.50197556  0.38182585    -0.74300
O213        O  0.15072971  0.50180955  0.43167456    -0.74300
O214        O  0.14302888  0.45848990  0.34594773    -0.74400
O215        O  0.11529860  0.53059178  0.33134284    -0.74300
O216        O  0.12327918  0.57471741  0.41813798    -0.74300
O217        O  0.18384828  0.57381560  0.36692647    -0.74200
O218        O  0.05455044  0.53312950  0.38198594    -0.74300
Ni219      Ni  0.14762373  0.47795566  0.38938281     1.25400
Ni220      Ni  0.11835022  0.55561459  0.37406302     1.25400
C221        C  0.04578418  0.49012974  0.39138409     0.88000
C222        C  0.21941311  0.54541325  0.37212720     0.87900
C223        C  0.13870083  0.54496734  0.43915379     0.87900
C224        C  0.12786737  0.48713440  0.32434235     0.88100
C225        C  0.93210156  0.41476739  0.40352331    -0.21100
C226        C  0.89567298  0.44891894  0.39714522    -0.09100
C227        C  0.90886727  0.49713813  0.39158092     0.29700
C228        C  0.95767315  0.51026760  0.39091298    -0.21100
C229        C  0.99442045  0.47574670  0.39582373    -0.09200
C230        C  0.98101880  0.42795713  0.40307531     0.29700
F231        F  0.01494938  0.39358586  0.40871180    -0.19700
H232        H  0.92272646  0.37741354  0.40820064     0.18100
H233        H  0.96662802  0.54748642  0.38551506     0.18100
F234        F  0.87494048  0.53105807  0.38483876    -0.19700
C235        C  0.18442390  0.54443435  0.52254703    -0.21100
C236        C  0.14314378  0.55869385  0.53969739    -0.09100
C237        C  0.10304081  0.57722247  0.52321059     0.29700
C238        C  0.10304279  0.57727560  0.48981765    -0.21100
C239        C  0.14296461  0.55880585  0.47282897    -0.09200
C240        C  0.18449047  0.54461309  0.48948187     0.29700
F241        F  0.22409847  0.52780960  0.47369862    -0.19700
H242        H  0.21579336  0.53043039  0.53483433     0.18100
H243        H  0.07052263  0.58788091  0.47738312     0.18100
F244        F  0.06228234  0.59049098  0.53919200    -0.19700
C245        C  0.70825426  0.38166290  0.52705786    -0.21100
C246        C  0.74897728  0.36532016  0.54358822    -0.09100
C247        C  0.78772240  0.34447908  0.52652690     0.29700
C248        C  0.78733624  0.34448134  0.49315066    -0.21100
C249        C  0.74835827  0.36525692  0.47675770    -0.09200
C250        C  0.70778081  0.38151919  0.49400613     0.29700
F251        F  0.66876821  0.40008154  0.47880524    -0.19700
H252        H  0.67779047  0.39727004  0.53979925     0.18100
H253        H  0.81901368  0.33193799  0.48023874     0.18100
F254        F  0.82779087  0.32878313  0.54189968    -0.19700
C255        C  0.93520745  0.41435935  0.61527283    -0.21100
C256        C  0.89842797  0.44950731  0.61746782    -0.09100
C257        C  0.91147756  0.49855297  0.61715740     0.29700
C258        C  0.96034039  0.51174904  0.61738714    -0.21100
C259        C  0.99716434  0.47648098  0.61756524    -0.09200
C260        C  0.98407507  0.42756621  0.61513874     0.29700
F261        F  0.01819994  0.39227948  0.61424937    -0.19700
H262        H  0.92620467  0.37628054  0.61473949     0.18100
H263        H  0.96927363  0.54981141  0.61846112     0.18100
F264        F  0.87730862  0.53378118  0.61844213    -0.19700
C265        C  0.77432860  0.51615356  0.76519303    -0.21100
C266        C  0.77209324  0.48207773  0.78988384    -0.09100
C267        C  0.77352754  0.43249937  0.78196807     0.29700
C268        C  0.77449725  0.41766934  0.75025655    -0.21100
C269        C  0.77391046  0.45158804  0.72554462    -0.09200
C270        C  0.77509955  0.50120606  0.73333398     0.29700
F271        F  0.77688736  0.53534693  0.71021541    -0.19700
H272        H  0.77409933  0.55445679  0.77050179     0.18100
H273        H  0.77423898  0.37932336  0.74506770     0.18100
F274        F  0.77369791  0.39798430  0.80486737    -0.19700
C275        C  0.14110268  0.41452488  0.76416258    -0.21100
C276        C  0.12863468  0.44762438  0.78804588    -0.09100
C277        C  0.11597334  0.49507092  0.77932043     0.29700
C278        C  0.11590643  0.50891902  0.74734316    -0.21100
C279        C  0.12911906  0.47610374  0.72331600    -0.09200
C280        C  0.14189983  0.42853694  0.73219287     0.29700
F281        F  0.15576380  0.39546398  0.71015151    -0.19700
H282        H  0.15152413  0.37799249  0.77033660     0.18100
H283        H  0.10589850  0.54566066  0.74145708     0.18100
F284        F  0.10292952  0.52799025  0.80168678    -0.19700
C285        C  0.98227308  0.49853340  0.89832378    -0.21100
C286        C  0.99511442  0.45054590  0.89148743    -0.09100
C287        C  0.95771977  0.41630267  0.88703143     0.29700
C288        C  0.90914799  0.43030273  0.88825871    -0.21100
C289        C  0.89644100  0.47858365  0.89366485    -0.09200
C290        C  0.93351815  0.51254219  0.89938302     0.29700
F291        F  0.92278598  0.55943840  0.90573205    -0.19700
H292        H  0.00998437  0.52554617  0.90222918     0.18100
H293        H  0.88145333  0.40349237  0.88372299     0.18100
F294        F  0.96771571  0.36927195  0.88061941    -0.19700
C295        C  0.76385444  0.43010352  0.23695835    -0.21100
C296        C  0.76814628  0.47949231  0.22929155    -0.09100
C297        C  0.77279901  0.51296894  0.25426453     0.29700
C298        C  0.77166738  0.49717329  0.28596855    -0.21100
C299        C  0.76682961  0.44775828  0.29344506    -0.09200
C300        C  0.76343639  0.41434232  0.26848642     0.29700
F301        F  0.75788609  0.36646296  0.27448054    -0.19700
H302        H  0.76039351  0.40325539  0.21841294     0.18100
H303        H  0.77462211  0.52371184  0.30475361     0.18100
F304        F  0.77728601  0.56093599  0.24821347    -0.19700
C305        C  0.71230616  0.52322277  0.02665943    -0.21100
C306        C  0.74902242  0.54763498  0.04306652    -0.09100
C307        C  0.78196190  0.57632158  0.02564332     0.29700
C308        C  0.78025974  0.57710954  0.99221272    -0.21100
C309        C  0.74569157  0.54940146  0.97589511    -0.09200
C310        C  0.71044003  0.52414547  0.99360963     0.29700
F311        F  0.67508451  0.49860783  0.97889903    -0.19700
H312        H  0.68579754  0.50174150  0.03948071     0.18100
H313        H  0.80780968  0.59676924  0.97910585     0.18100
F314        F  0.81791932  0.60044374  0.04065012    -0.19700
C315        C  0.11211049  0.48399231  0.23467708    -0.21100
C316        C  0.12728932  0.43689936  0.22712697    -0.09100
C317        C  0.14041384  0.40556829  0.25183751     0.29700
C318        C  0.13984785  0.42190715  0.28337124    -0.21100
C319        C  0.12566508  0.46957251  0.29093019    -0.09200
C320        C  0.11077573  0.50011913  0.26611523     0.29700
F321        F  0.09550840  0.54587907  0.27198199    -0.19700
H322        H  0.10131112  0.50862182  0.21602985     0.18100
H323        H  0.15133982  0.39732517  0.30184477     0.18100
F324        F  0.15595685  0.36004606  0.24543435    -0.19700
C325        C  0.10861503  0.35034983  0.02393293    -0.21100
C326        C  0.14530603  0.37469172  0.04052945    -0.09100
C327        C  0.18281596  0.39713254  0.02323781     0.29700
C328        C  0.18169429  0.39842401  0.99021347    -0.21100
C329        C  0.14339762  0.37725692  0.97351504    -0.09200
C330        C  0.10755479  0.35162054  0.99052746     0.29700
F331        F  0.06965239  0.33131168  0.97513449    -0.19700
H332        H  0.07918965  0.33312996  0.03680776     0.18100
H333        H  0.21010588  0.41772703  0.97761691     0.18100
F334        F  0.21979377  0.41957092  0.03838243    -0.19700
C335        C  0.98552618  0.49254252  0.12484887    -0.21100
C336        C  0.99739597  0.44330119  0.12514115    -0.09100
C337        C  0.95956439  0.40898449  0.12405597     0.29700
C338        C  0.91111912  0.42393071  0.12406678    -0.21100
C339        C  0.89926558  0.47320556  0.12519299    -0.09200
C340        C  0.93720799  0.50747839  0.12488172     0.29700
F341        F  0.92793594  0.55564661  0.12510019    -0.19700
H342        H  0.01370398  0.51976321  0.12542414     0.18100
H343        H  0.88286363  0.39677419  0.12403346     0.18100
F344        F  0.96912515  0.36088568  0.12333829    -0.19700
C345        C  0.59293308  0.34707553  0.39791453    -0.21100
C346        C  0.62412956  0.35333055  0.37174857    -0.09100
C347        C  0.61494537  0.32802763  0.34357212     0.29700
C348        C  0.57886571  0.29282644  0.34281291    -0.21100
C349        C  0.55146080  0.28231239  0.37008803    -0.09200
C350        C  0.55660005  0.31158334  0.39715118     0.29700
F351        F  0.53130275  0.30146899  0.42409327    -0.19700
H352        H  0.60011771  0.36571135  0.42003400     0.18100
H353        H  0.57563903  0.27033340  0.32184035     0.18100
F354        F  0.64453462  0.33357776  0.31793153    -0.19700
C355        C  0.33505999  0.60614426  0.39413723    -0.21100
C356        C  0.33919266  0.63831049  0.36847445    -0.09100
C357        C  0.31245654  0.62957529  0.34085819     0.29700
C358        C  0.27721902  0.59351894  0.34060959    -0.21100
C359        C  0.26830259  0.56563316  0.36782415    -0.09200
C360        C  0.29967563  0.56968820  0.39382820     0.29700
F361        F  0.29166878  0.54329057  0.42050020    -0.19700
H362        H  0.35506846  0.61270601  0.41572823     0.18100
H363        H  0.25341513  0.59082345  0.32035261     0.18100
F364        F  0.31641436  0.65970233  0.31551896    -0.19700
C365        C  0.47785330  0.92353965  0.39539205    -0.21100
C366        C  0.42849808  0.91158938  0.39541610    -0.09100
C367        C  0.39398299  0.94923307  0.39647430     0.29700
C368        C  0.40878853  0.99753614  0.39568680    -0.21100
C369        C  0.45811606  0.00944492  0.39377239    -0.09200
C370        C  0.49266048  0.97180765  0.39452913     0.29700
F371        F  0.54090430  0.98134742  0.39382058    -0.19700
H372        H  0.50518294  0.89546632  0.39486016     0.18100
H373        H  0.38144820  0.02559892  0.39554494     0.18100
F374        F  0.34577238  0.93958664  0.39763979    -0.19700
C375        C  0.58324053  0.28927183  0.67545413    -0.21100
C376        C  0.55514752  0.28353113  0.64811379    -0.09100
C377        C  0.55883387  0.31792471  0.62366382     0.29700
C378        C  0.59493804  0.35366480  0.62491131    -0.21100
C379        C  0.62740152  0.35489670  0.65044845    -0.09200
C380        C  0.61918403  0.32456127  0.67665227     0.29700
F381        F  0.64958564  0.32538214  0.70183894    -0.19700
H382        H  0.58080992  0.26307937  0.69453915     0.18100
H383        H  0.60108054  0.37644970  0.60435729     0.18100
F384        F  0.53234283  0.31294328  0.59685971    -0.19700
C385        C  0.51910854  0.19811487  0.52280096    -0.21100
C386        C  0.53908889  0.15942415  0.53973619    -0.09100
C387        C  0.56236339  0.12199104  0.52288635     0.29700
C388        C  0.56163903  0.12154899  0.48948341    -0.21100
C389        C  0.53770064  0.15837544  0.47279367    -0.09200
C390        C  0.51851226  0.19778704  0.48976054     0.29700
F391        F  0.49679551  0.23495273  0.47436400    -0.19700
H392        H  0.50164481  0.22769335  0.53528114     0.18100
H393        H  0.57653814  0.09080363  0.47684244     0.18100
F394        F  0.58170393  0.08386901  0.53859416    -0.19700
C395        C  0.30170909  0.57373094  0.61962716    -0.21100
C396        C  0.26958726  0.56883495  0.64543226    -0.09100
C397        C  0.27807574  0.59513469  0.67331607     0.29700
C398        C  0.31370114  0.63079492  0.67374678    -0.21100
C399        C  0.34149090  0.64039592  0.64648341    -0.09200
C400        C  0.33781435  0.60944698  0.62014389     0.29700
F401        F  0.36422195  0.61809432  0.59343799    -0.19700
H402        H  0.29535378  0.55400060  0.59785915     0.18100
H403        H  0.31618042  0.65424038  0.69425660     0.18100
F404        F  0.24811130  0.59022065  0.69883263    -0.19700
C405        C  0.32806232  0.80141916  0.52557494    -0.21100
C406        C  0.35123582  0.76403052  0.54220699    -0.09100
C407        C  0.36910642  0.72405996  0.52521837     0.29700
C408        C  0.36819537  0.72371342  0.49216809    -0.21100
C409        C  0.34931542  0.76300676  0.47527229    -0.09200
C410        C  0.32707488  0.80099813  0.49217088     0.29700
F411        F  0.30876737  0.83967488  0.47650899    -0.19700
H412        H  0.31415112  0.83259478  0.53824959     0.18100
H413        H  0.38489469  0.69375138  0.47962905     0.18100
F414        F  0.39004400  0.68642661  0.54058866    -0.19700
C415        C  0.48146401  0.92560431  0.62166316    -0.21100
C416        C  0.43224051  0.91360759  0.62020952    -0.09100
C417        C  0.39798024  0.95105238  0.61660063     0.29700
C418        C  0.41274633  0.99948213  0.61653462    -0.21100
C419        C  0.46181675  0.01157075  0.62001059    -0.09200
C420        C  0.49624790  0.97384307  0.62159731     0.29700
F421        F  0.54436004  0.98323961  0.62395986    -0.19700
H422        H  0.50862138  0.89762815  0.62410843     0.18100
H423        H  0.38553643  0.02751730  0.61472966     0.18100
F424        F  0.35009062  0.94102779  0.61355428    -0.19700
C425        C  0.57415859  0.62829714  0.84265256    -0.21100
C426        C  0.54956581  0.63973495  0.87092065    -0.09100
C427        C  0.55707592  0.61102281  0.89797481     0.29700
C428        C  0.59311146  0.57522441  0.89760704    -0.21100
C429        C  0.62184315  0.56814143  0.87034486    -0.09200
C430        C  0.61009060  0.59278659  0.84231127     0.29700
F431        F  0.63717356  0.58644972  0.81559671    -0.19700
H432        H  0.56911763  0.65036008  0.82168508     0.18100
H433        H  0.60231935  0.55721246  0.91957948     0.18100
F434        F  0.53471224  0.62213538  0.92583945    -0.19700
C435        C  0.49643101  0.77712781  0.76563847    -0.21100
C436        C  0.46210395  0.78258940  0.79011430    -0.09100
C437        C  0.41295042  0.78829969  0.78195312     0.29700
C438        C  0.39878200  0.78847015  0.75008156    -0.21100
C439        C  0.43296883  0.78218675  0.72554056    -0.09200
C440        C  0.48218880  0.77643585  0.73376869     0.29700
F441        F  0.51682207  0.77000842  0.71111852    -0.19700
H442        H  0.53436884  0.77225091  0.77120383     0.18100
H443        H  0.36073662  0.79282866  0.74466258     0.18100
F444        F  0.37842703  0.79419782  0.80474833    -0.19700
C445        C  0.31389016  0.29636043  0.84090004    -0.21100
C446        C  0.34123045  0.28753778  0.86820331    -0.09100
C447        C  0.33760051  0.31982112  0.89391185     0.29700
C448        C  0.30213582  0.35633259  0.89379094    -0.21100
C449        C  0.27063643  0.36089719  0.86791725    -0.09200
C450        C  0.27912014  0.33292081  0.84062396     0.29700
F451        F  0.24958199  0.33701147  0.81512607    -0.19700
H452        H  0.31622523  0.27193802  0.82085688     0.18100
H453        H  0.29573765  0.37711364  0.91518627     0.18100
F454        F  0.36358285  0.31207294  0.92064846    -0.19700
C455        C  0.48339301  0.14457164  0.78133692    -0.21100
C456        C  0.43366658  0.14440142  0.78910637    -0.09100
C457        C  0.39983366  0.14244314  0.76435109     0.29700
C458        C  0.41554778  0.14157110  0.73272843    -0.21100
C459        C  0.46520521  0.14213541  0.72491594    -0.09200
C460        C  0.49913523  0.14317502  0.74965678     0.29700
F461        F  0.54740904  0.14448154  0.74330898    -0.19700
H462        H  0.51037384  0.14596176  0.79991090     0.18100
H463        H  0.38849890  0.14075268  0.71418245     0.18100
F464        F  0.35151097  0.14288220  0.77055729    -0.19700
C465        C  0.49721372  0.95180447  0.89233270    -0.21100
C466        C  0.46160393  0.91525481  0.89317696    -0.09100
C467        C  0.41264218  0.92900711  0.89528919     0.29700
C468        C  0.39983998  0.97791234  0.89508770    -0.21100
C469        C  0.43530440  0.01441731  0.89297321    -0.09200
C470        C  0.48438567  0.00079139  0.89233264     0.29700
F471        F  0.51998643  0.03451970  0.89032572    -0.19700
H472        H  0.53530932  0.94251563  0.89096164     0.18100
H473        H  0.36170418  0.98716563  0.89593793     0.18100
F474        F  0.37686311  0.89539196  0.89633286    -0.19700
C475        C  0.55940600  0.60871475  0.12231164    -0.21100
C476        C  0.55412231  0.63969123  0.14850380    -0.09100
C477        C  0.58098468  0.63074123  0.17604126     0.29700
C478        C  0.61651089  0.59493989  0.17605787    -0.21100
C479        C  0.62590668  0.56777922  0.14861147    -0.09200
C480        C  0.59539120  0.57287791  0.12226390     0.29700
F481        F  0.60474109  0.54812086  0.09509207    -0.19700
H482        H  0.53968117  0.61582080  0.10067231     0.18100
H483        H  0.64004839  0.59178132  0.19642707     0.18100
F484        F  0.57658873  0.66023659  0.20165466    -0.19700
C485        C  0.39618376  0.78701040  0.26668951    -0.21100
C486        C  0.43021225  0.78297495  0.29115347    -0.09100
C487        C  0.47989298  0.78069096  0.28291394     0.29700
C488        C  0.49468933  0.78128860  0.25101693    -0.21100
C489        C  0.46050705  0.78352067  0.22658606    -0.09200
C490        C  0.41096914  0.78702791  0.23480547     0.29700
F491        F  0.37662769  0.79063579  0.21203578    -0.19700
H492        H  0.35784092  0.78912519  0.27218246     0.18100
H493        H  0.53296939  0.77864349  0.24541944     0.18100
F494        F  0.51441295  0.77768461  0.30560219    -0.19700
C495        C  0.56433296  0.79596827  0.02528967    -0.21100
C496        C  0.53691138  0.76094970  0.04171696    -0.09100
C497        C  0.51390763  0.72437538  0.02423520     0.29700
C498        C  0.51379589  0.72588738  0.99120951    -0.21100
C499        C  0.53693564  0.76347490  0.97466308    -0.09200
C500        C  0.56454485  0.79719072  0.99183977     0.29700
F501        F  0.58817284  0.83346779  0.97655785    -0.19700
H502        H  0.58267963  0.82428265  0.03826157     0.18100
H503        H  0.49342575  0.69866745  0.97849307     0.18100
F504        F  0.48928611  0.68831644  0.03914189    -0.19700
C505        C  0.30323926  0.34956503  0.11778615    -0.21100
C506        C  0.27327182  0.35552919  0.14459703    -0.09100
C507        C  0.28401012  0.33027597  0.17255005     0.29700
C508        C  0.31981240  0.29478349  0.17238090    -0.21100
C509        C  0.34528493  0.28403728  0.14436310    -0.09200
C510        C  0.33939355  0.31386756  0.11764705     0.29700
F511        F  0.36342045  0.30392724  0.09017888    -0.19700
H512        H  0.29497180  0.36831106  0.09591452     0.18100
H513        H  0.32378822  0.27196395  0.19310482     0.18100
F514        F  0.25564886  0.33559490  0.19879471    -0.19700
C515        C  0.49325851  0.13698890  0.26441577    -0.21100
C516        C  0.45880812  0.14036923  0.28901176    -0.09100
C517        C  0.40925496  0.14237524  0.28092776     0.29700
C518        C  0.39496904  0.14158794  0.24906860    -0.21100
C519        C  0.42953185  0.13945828  0.22448189    -0.09200
C520        C  0.47900303  0.13682689  0.23257212     0.29700
F521        F  0.51384855  0.13386146  0.20974430    -0.19700
H522        H  0.53153455  0.13531780  0.26978469     0.18100
H523        H  0.35673159  0.14369447  0.24363712     0.18100
F524        F  0.37435117  0.14498858  0.30373821    -0.19700
C525        C  0.37417605  0.19871503  0.02404972    -0.21100
C526        C  0.35365645  0.15941366  0.04031384    -0.09100
C527        C  0.32926868  0.12356090  0.02293569     0.29700
C528        C  0.32979999  0.12499132  0.98953443    -0.21100
C529        C  0.35455882  0.16216741  0.97340818    -0.09200
C530        C  0.37451018  0.20029258  0.99102419     0.29700
F531        F  0.39672205  0.23796056  0.97623168    -0.19700
H532        H  0.39233012  0.22721564  0.03700165     0.18100
H533        H  0.31412371  0.09530245  0.97637236     0.18100
F534        F  0.30898792  0.08512716  0.03799562    -0.19700
C535        C  0.47532290  0.99502086  0.11500577    -0.21100
C536        C  0.42676375  0.00742868  0.12076135    -0.09100
C537        C  0.39235662  0.96997532  0.12452722     0.29700
C538        C  0.40700137  0.92158751  0.12428202    -0.21100
C539        C  0.45601375  0.90949053  0.12043792    -0.09200
C540        C  0.48990943  0.94671461  0.11483506     0.29700
F541        F  0.53745703  0.93661349  0.10968643    -0.19700
H542        H  0.50249115  0.02279820  0.11152095     0.18100
H543        H  0.38017557  0.89367127  0.12843473     0.18100
F544        F  0.34468839  0.97982796  0.12936330    -0.19700
loop_ 
_geom_bond_atom_site_label_1 
_geom_bond_atom_site_label_2 
_geom_bond_distance 
_geom_bond_site_symmetry_2 
_ccdc_geom_bond_type 
O1           Ni9   1.931       .  S
O1           C11   1.286       .  A
O2           Ni9   1.932       .  S
O2           C12   1.282       .  A
O3           Ni9   1.911       .  S
O3           C13   1.279       .  A
O4           Ni9   1.902       .  S
O4           C14   1.279       .  A
O5          Ni10   1.939       .  S
O5           C14   1.285       .  A
O6          Ni10   1.936       .  S
O6           C13   1.286       .  A
O7          Ni10   1.900       .  S
O7           C12   1.278       .  A
O8          Ni10   1.902       .  S
O8           C11   1.277       .  A
Ni9         Ni10   2.387       .  S
C11         C536   1.485       .  S
C12         C509   1.468       .  S
C13         C519   1.489       .  S
C14         C526   1.478       .  S
O15         Ni23   1.932       .  S
O15          C25   1.285       .  A
O16         Ni23   1.934       .  S
O16          C26   1.283       .  A
O17         Ni23   1.910       .  S
O17          C27   1.279       .  A
O18         Ni23   1.903       .  S
O18          C28   1.279       .  A
O19         Ni24   1.941       .  S
O19          C28   1.285       .  A
O20         Ni24   1.937       .  S
O20          C27   1.286       .  A
O21         Ni24   1.899       .  S
O21          C26   1.278       .  A
O22         Ni24   1.899       .  S
O22          C25   1.277       .  A
Ni23        Ni24   2.387       .  S
C25         C539   1.480       .  S
C26         C476   1.469       .  S
C27         C489   1.487       .  S
C28         C496   1.483       .  S
O29         Ni37   1.938       .  S
O29          C39   1.286       .  A
O30         Ni37   1.938       .  S
O30          C40   1.284       .  A
O31         Ni37   1.904       .  S
O31          C41   1.279       .  A
O32         Ni37   1.911       .  S
O32          C42   1.280       .  A
O33         Ni38   1.930       .  S
O33          C42   1.285       .  A
O34         Ni38   1.935       .  S
O34          C41   1.284       .  A
O35         Ni38   1.904       .  S
O35          C40   1.279       .  A
O36         Ni38   1.904       .  S
O36          C39   1.278       .  A
Ni37        Ni38   2.387       .  S
C39         C469   1.488       .  S
C40         C446   1.476       .  S
C41         C529   1.478       .  S
C42         C456   1.486       .  S
O43         Ni51   1.936       .  S
O43          C53   1.286       .  A
O44         Ni51   1.937       .  S
O44          C54   1.284       .  A
O45         Ni51   1.902       .  S
O45          C55   1.279       .  A
O46         Ni51   1.910       .  S
O46          C56   1.279       .  A
O47         Ni52   1.938       .  S
O47          C56   1.287       .  A
O48         Ni52   1.942       .  S
O48          C55   1.285       .  A
O49         Ni52   1.901       .  S
O49          C54   1.278       .  A
O50         Ni52   1.906       .  S
O50          C53   1.278       .  A
Ni51        Ni52   2.386       .  S
C53         C466   1.489       .  S
C54         C426   1.471       .  S
C55         C499   1.482       .  S
C56         C436   1.488       .  S
O57         Ni65   1.932       .  S
O57          C67   1.286       .  A
O58         Ni65   1.931       .  S
O58          C68   1.282       .  A
O59         Ni65   1.904       .  S
O59          C69   1.279       .  A
O60         Ni65   1.913       .  S
O60          C70   1.280       .  A
O61         Ni66   1.935       .  S
O61          C70   1.286       .  A
O62         Ni66   1.938       .  S
O62          C69   1.284       .  A
O63         Ni66   1.901       .  S
O63          C68   1.279       .  A
O64         Ni66   1.903       .  S
O64          C67   1.277       .  A
Ni65        Ni66   2.387       .  S
C67         C416   1.482       .  S
C68         C399   1.470       .  S
C69         C406   1.478       .  S
C70         C439   1.492       .  S
O71         Ni79   1.939       .  S
O71          C81   1.287       .  A
O72         Ni79   1.938       .  S
O72          C82   1.284       .  A
O73         Ni79   1.903       .  S
O73          C83   1.279       .  A
O74         Ni79   1.907       .  S
O74          C84   1.279       .  A
O75         Ni80   1.933       .  S
O75          C84   1.285       .  A
O76         Ni80   1.937       .  S
O76          C83   1.284       .  A
O77         Ni80   1.896       .  S
O77          C82   1.277       .  A
O78         Ni80   1.896       .  S
O78          C81   1.276       .  A
Ni79        Ni80   2.387       .  S
C81         C419   1.486       .  S
C82         C376   1.471       .  S
C83         C386   1.478       .  S
C84         C459   1.485       .  S
O85         Ni93   1.933       .  S
O85          C95   1.286       .  A
O86         Ni93   1.933       .  S
O86          C96   1.283       .  A
O87         Ni93   1.910       .  S
O87          C97   1.279       .  A
O88         Ni93   1.903       .  S
O88          C98   1.279       .  A
O89         Ni94   1.938       .  S
O89          C98   1.285       .  A
O90         Ni94   1.935       .  S
O90          C97   1.286       .  A
O91         Ni94   1.900       .  S
O91          C96   1.278       .  A
O92         Ni94   1.899       .  S
O92          C95   1.277       .  A
Ni93        Ni94   2.387       .  S
C95         C366   1.482       .  S
C96         C356   1.470       .  S
C97         C486   1.490       .  S
C98         C409   1.478       .  S
O99        Ni107   1.934       .  S
O99         C109   1.286       .  A
O100       Ni107   1.935       .  S
O100        C110   1.283       .  A
O101       Ni107   1.912       .  S
O101        C111   1.279       .  A
O102       Ni107   1.901       .  S
O102        C112   1.278       .  A
O103       Ni108   1.939       .  S
O103        C112   1.285       .  A
O104       Ni108   1.936       .  S
O104        C111   1.286       .  A
O105       Ni108   1.899       .  S
O105        C110   1.278       .  A
O106       Ni108   1.899       .  S
O106        C109   1.277       .  A
Ni107      Ni108   2.387       .  S
C109        C369   1.484       .  S
C110        C349   1.470       .  S
C111        C516   1.491       .  S
C112        C389   1.478       .  S
O113       Ni121   1.929       .  S
O113        C123   1.286       .  A
O114       Ni121   1.933       .  S
O114        C124   1.282       .  A
O115       Ni121   1.901       .  S
O115        C125   1.278       .  A
O116       Ni121   1.907       .  S
O116        C126   1.279       .  A
O117       Ni122   1.938       .  S
O117        C126   1.285       .  A
O118       Ni122   1.940       .  S
O118        C125   1.285       .  A
O119       Ni122   1.901       .  S
O119        C124   1.278       .  A
O120       Ni122   1.904       .  S
O120        C123   1.278       .  A
Ni121      Ni122   2.388       .  S
C123        C336   1.484   1_455  S
C124        C506   1.469       .  S
C125        C326   1.480       .  S
C126        C316   1.481       .  S
O127       Ni135   1.936       .  S
O127        C137   1.286       .  A
O128       Ni135   1.935       .  S
O128        C138   1.284       .  A
O129       Ni135   1.903       .  S
O129        C139   1.279       .  A
O130       Ni135   1.907       .  S
O130        C140   1.279       .  A
O131       Ni136   1.942       .  S
O131        C140   1.287       .  A
O132       Ni136   1.945       .  S
O132        C139   1.286       .  A
O133       Ni136   1.897       .  S
O133        C138   1.277       .  A
O134       Ni136   1.898       .  S
O134        C137   1.276       .  A
Ni135      Ni136   2.386       .  S
C137        C339   1.485       .  S
C138        C479   1.469       .  S
C139        C306   1.486       .  S
C140        C296   1.492       .  S
O141       Ni149   1.940       .  S
O141        C151   1.287       .  A
O142       Ni149   1.943       .  S
O142        C152   1.285       .  A
O143       Ni149   1.911       .  S
O143        C153   1.279       .  A
O144       Ni149   1.904       .  S
O144        C154   1.279       .  A
O145       Ni150   1.938       .  S
O145        C154   1.285       .  A
O146       Ni150   1.934       .  S
O146        C153   1.285       .  A
O147       Ni150   1.895       .  S
O147        C152   1.277       .  A
O148       Ni150   1.896       .  S
O148        C151   1.276       .  A
Ni149      Ni150   2.387       .  S
C151        C286   1.488   1_455  S
C152        C449   1.474       .  S
C153        C276   1.483       .  S
C154        C329   1.480       .  S
O155       Ni163   1.932       .  S
O155        C165   1.286       .  A
O156       Ni163   1.935       .  S
O156        C166   1.283       .  A
O157       Ni163   1.905       .  S
O157        C167   1.278       .  A
O158       Ni163   1.901       .  S
O158        C168   1.278       .  A
O159       Ni164   1.945       .  S
O159        C168   1.287       .  A
O160       Ni164   1.943       .  S
O160        C167   1.287       .  A
O161       Ni164   1.904       .  S
O161        C166   1.278       .  A
O162       Ni164   1.902       .  S
O162        C165   1.277       .  A
Ni163      Ni164   2.386       .  S
C165        C289   1.481       .  S
C166        C429   1.471       .  S
C167        C266   1.490       .  S
C168        C309   1.485       .  S
O169       Ni177   1.931       .  S
O169        C179   1.285       .  A
O170       Ni177   1.934       .  S
O170        C180   1.283       .  A
O171       Ni177   1.915       .  S
O171        C181   1.280       .  A
O172       Ni177   1.904       .  S
O172        C182   1.279       .  A
O173       Ni178   1.933       .  S
O173        C182   1.283       .  A
O174       Ni178   1.931       .  S
O174        C181   1.286       .  A
O175       Ni178   1.901       .  S
O175        C180   1.279       .  A
O176       Ni178   1.898       .  S
O176        C179   1.277       .  A
Ni177      Ni178   2.388       .  S
C179        C256   1.481       .  S
C180        C379   1.472       .  S
C181        C269   1.488       .  S
C182        C246   1.475       .  S
O183       Ni191   1.932       .  S
O183        C193   1.285       .  A
O184       Ni191   1.931       .  S
O184        C194   1.282       .  A
O185       Ni191   1.914       .  S
O185        C195   1.280       .  A
O186       Ni191   1.906       .  S
O186        C196   1.279       .  A
O187       Ni192   1.934       .  S
O187        C196   1.283       .  A
O188       Ni192   1.931       .  S
O188        C195   1.285       .  A
O189       Ni192   1.900       .  S
O189        C194   1.279       .  A
O190       Ni192   1.899       .  S
O190        C193   1.277       .  A
Ni191      Ni192   2.387       .  S
C193        C259   1.482   1_455  S
C194        C396   1.469       .  S
C195        C279   1.492       .  S
C196        C236   1.475       .  S
O197       Ni205   1.929       .  S
O197        C207   1.285       .  A
O198       Ni205   1.933       .  S
O198        C208   1.283       .  A
O199       Ni205   1.905       .  S
O199        C209   1.279       .  A
O200       Ni205   1.915       .  S
O200        C210   1.280       .  A
O201       Ni206   1.932       .  S
O201        C210   1.286       .  A
O202       Ni206   1.934       .  S
O202        C209   1.283       .  A
O203       Ni206   1.900       .  S
O203        C208   1.278       .  A
O204       Ni206   1.899       .  S
O204        C207   1.277       .  A
Ni205      Ni206   2.389       .  S
C207        C226   1.476       .  S
C208        C346   1.470       .  S
C209        C249   1.476       .  S
C210        C299   1.487       .  S
O211       Ni219   1.934       .  S
O211        C221   1.286       .  A
O212       Ni219   1.934       .  S
O212        C222   1.283       .  A
O213       Ni219   1.903       .  S
O213        C223   1.279       .  A
O214       Ni219   1.913       .  S
O214        C224   1.280       .  A
O215       Ni220   1.931       .  S
O215        C224   1.286       .  A
O216       Ni220   1.937       .  S
O216        C223   1.284       .  A
O217       Ni220   1.898       .  S
O217        C222   1.278       .  A
O218       Ni220   1.895       .  S
O218        C221   1.277       .  A
Ni219      Ni220   2.387       .  S
C221        C229   1.483   1_455  S
C222        C359   1.471       .  S
C223        C239   1.475       .  S
C224        C319   1.491       .  S
C225        C226   1.407       .  A
C225        C230   1.399       .  A
C225        H232   1.083       .  S
C226        C227   1.402       .  A
C227        C228   1.395       .  A
C227        F234   1.358       .  S
C228        C229   1.410       .  A
C228        H233   1.083       .  S
C229        C230   1.406       .  A
C230        F231   1.357   1_655  S
C235        C236   1.401       .  A
C235        C240   1.393       .  A
C235        H242   1.084       .  S
C236        C237   1.408       .  A
C237        C238   1.407       .  A
C237        F244   1.357       .  S
C238        C239   1.406       .  A
C238        H243   1.083       .  S
C239        C240   1.404       .  A
C240        F241   1.357       .  S
C245        C246   1.402       .  A
C245        C250   1.393       .  A
C245        H252   1.084       .  S
C246        C247   1.408       .  A
C247        C248   1.406       .  A
C247        F254   1.357       .  S
C248        C249   1.406       .  A
C248        H253   1.083       .  S
C249        C250   1.405       .  A
C250        F251   1.358       .  S
C255        C256   1.409       .  A
C255        C260   1.397       .  A
C255        H262   1.083       .  S
C256        C257   1.404       .  A
C257        C258   1.397       .  A
C257        F264   1.357       .  S
C258        C259   1.409       .  A
C258        H263   1.083       .  S
C259        C260   1.405       .  A
C260        F261   1.357   1_655  S
C265        C266   1.405       .  A
C265        C270   1.405       .  A
C265        H272   1.084       .  S
C266        C267   1.413       .  A
C267        C268   1.398       .  A
C267        F274   1.358       .  S
C268        C269   1.402       .  A
C268        H273   1.084       .  S
C269        C270   1.412       .  A
C270        F271   1.357       .  S
C275        C276   1.402       .  A
C275        C280   1.402       .  A
C275        H282   1.083       .  S
C276        C277   1.408       .  A
C277        C278   1.401       .  A
C277        F284   1.358       .  S
C278        C279   1.406       .  A
C278        H283   1.083       .  S
C279        C280   1.414       .  A
C280        F281   1.357       .  S
C285        C286   1.404       .  A
C285        C290   1.401       .  A
C285        H292   1.083   1_655  S
C286        C287   1.415       .  A
C287        C288   1.396       .  A
C287        F294   1.357       .  S
C288        C289   1.400       .  A
C288        H293   1.083       .  S
C289        C290   1.411       .  A
C290        F291   1.358       .  S
C295        C296   1.409       .  A
C295        C300   1.398       .  A
C295        H302   1.083       .  S
C296        C297   1.409       .  A
C297        C298   1.405       .  A
C297        F304   1.357       .  S
C298        C299   1.409       .  A
C298        H303   1.083       .  S
C299        C300   1.404       .  A
C300        F301   1.357       .  S
C305        C306   1.404       .  A
C305        C310   1.394   1_554  A
C305        H312   1.084       .  S
C306        C307   1.409       .  A
C307        C308   1.410   1_554  A
C307        F314   1.357       .  S
C308        C309   1.408       .  A
C308        H313   1.083       .  S
C309        C310   1.407       .  A
C310        F311   1.358       .  S
C315        C316   1.405       .  A
C315        C320   1.398       .  A
C315        H322   1.084       .  S
C316        C317   1.404       .  A
C317        C318   1.404       .  A
C317        F324   1.358       .  S
C318        C319   1.412       .  A
C318        H323   1.083       .  S
C319        C320   1.408       .  A
C320        F321   1.357       .  S
C325        C326   1.407       .  A
C325        C330   1.408   1_554  A
C325        H332   1.083       .  S
C326        C327   1.406       .  A
C327        C328   1.392   1_554  A
C327        F334   1.358       .  S
C328        C329   1.403       .  A
C328        H333   1.084       .  S
C329        C330   1.409       .  A
C330        F331   1.357       .  S
C335        C336   1.402       .  A
C335        C340   1.396       .  A
C335        H342   1.083   1_655  S
C336        C337   1.412       .  A
C337        C338   1.400       .  A
C337        F344   1.357       .  S
C338        C339   1.403       .  A
C338        H343   1.083       .  S
C339        C340   1.413       .  A
C340        F341   1.358       .  S
C345        C346   1.404       .  A
C345        C350   1.404       .  A
C345        H352   1.085       .  S
C346        C347   1.403       .  A
C347        C348   1.394       .  A
C347        F354   1.358       .  S
C348        C349   1.401       .  A
C348        H353   1.085       .  S
C349        C350   1.407       .  A
C350        F351   1.357       .  S
C355        C356   1.404       .  A
C355        C360   1.404       .  A
C355        H362   1.083       .  S
C356        C357   1.404       .  A
C357        C358   1.393       .  A
C357        F364   1.358       .  S
C358        C359   1.402       .  A
C358        H363   1.084       .  S
C359        C360   1.406       .  A
C360        F361   1.357       .  S
C365        C366   1.402       .  A
C365        C370   1.397       .  A
C365        H372   1.083       .  S
C366        C367   1.412       .  A
C367        C368   1.398       .  A
C367        F374   1.358       .  S
C368        C369   1.402   1_565  A
C368        H373   1.083   1_565  S
C369        C370   1.413   1_545  A
C370        F371   1.358       .  S
C375        C376   1.403       .  A
C375        C380   1.393       .  A
C375        H382   1.084       .  S
C376        C377   1.405       .  A
C377        C378   1.405       .  A
C377        F384   1.357       .  S
C378        C379   1.406       .  A
C378        H383   1.083       .  S
C379        C380   1.404       .  A
C380        F381   1.358       .  S
C385        C386   1.402       .  A
C385        C390   1.392       .  A
C385        H392   1.084       .  S
C386        C387   1.408       .  A
C387        C388   1.408       .  A
C387        F394   1.357       .  S
C388        C389   1.406       .  A
C388        H393   1.083       .  S
C389        C390   1.406       .  A
C390        F391   1.358       .  S
C395        C396   1.404       .  A
C395        C400   1.404       .  A
C395        H402   1.083       .  S
C396        C397   1.403       .  A
C397        C398   1.393       .  A
C397        F404   1.358       .  S
C398        C399   1.402       .  A
C398        H403   1.083       .  S
C399        C400   1.406       .  A
C400        F401   1.357       .  S
C405        C406   1.406       .  A
C405        C410   1.408       .  A
C405        H412   1.084       .  S
C406        C407   1.405       .  A
C407        C408   1.393       .  A
C407        F414   1.358       .  S
C408        C409   1.402       .  A
C408        H413   1.084       .  S
C409        C410   1.408       .  A
C410        F411   1.357       .  S
C415        C416   1.400       .  A
C415        C420   1.396       .  A
C415        H422   1.083       .  S
C416        C417   1.412       .  A
C417        C418   1.401       .  A
C417        F424   1.358       .  S
C418        C419   1.404   1_565  A
C418        H423   1.083   1_565  S
C419        C420   1.414   1_545  A
C420        F421   1.358       .  S
C425        C426   1.403       .  A
C425        C430   1.396       .  A
C425        H432   1.084       .  S
C426        C427   1.406       .  A
C427        C428   1.404       .  A
C427        F434   1.358       .  S
C428        C429   1.405       .  A
C428        H433   1.083       .  S
C429        C430   1.404       .  A
C430        F431   1.358       .  S
C435        C436   1.403       .  A
C435        C440   1.402       .  A
C435        H442   1.083       .  S
C436        C437   1.411       .  A
C437        C438   1.402       .  A
C437        F444   1.358       .  S
C438        C439   1.405       .  A
C438        H443   1.083       .  S
C439        C440   1.414       .  A
C440        F441   1.357       .  S
C445        C446   1.402       .  A
C445        C450   1.395       .  A
C445        H452   1.083       .  S
C446        C447   1.407       .  A
C447        C448   1.407       .  A
C447        F454   1.357       .  S
C448        C449   1.405       .  A
C448        H453   1.083       .  S
C449        C450   1.405       .  A
C450        F451   1.358       .  S
C455        C456   1.408       .  A
C455        C460   1.401       .  A
C455        H462   1.085       .  S
C456        C457   1.406       .  A
C457        C458   1.398       .  A
C457        F464   1.357       .  S
C458        C459   1.407       .  A
C458        H463   1.085       .  S
C459        C460   1.407       .  A
C460        F461   1.357       .  S
C465        C466   1.411       .  A
C465        C470   1.401   1_565  A
C465        H472   1.084       .  S
C466        C467   1.406       .  A
C467        C468   1.399       .  A
C467        F474   1.357       .  S
C468        C469   1.409   1_565  A
C468        H473   1.084       .  S
C469        C470   1.406       .  A
C470        F471   1.357       .  S
C475        C476   1.404       .  A
C475        C480   1.404       .  A
C475        H482   1.083       .  S
C476        C477   1.404       .  A
C477        C478   1.394       .  A
C477        F484   1.358       .  S
C478        C479   1.402       .  A
C478        H483   1.084       .  S
C479        C480   1.406       .  A
C480        F481   1.357       .  S
C485        C486   1.404       .  A
C485        C490   1.401       .  A
C485        H492   1.083       .  S
C486        C487   1.413       .  A
C487        C488   1.402       .  A
C487        F494   1.357       .  S
C488        C489   1.403       .  A
C488        H493   1.083       .  S
C489        C490   1.411       .  A
C490        F491   1.357       .  S
C495        C496   1.408       .  A
C495        C500   1.410   1_554  A
C495        H502   1.083       .  S
C496        C497   1.406       .  A
C497        C498   1.392   1_554  A
C497        F504   1.358       .  S
C498        C499   1.403       .  A
C498        H503   1.084       .  S
C499        C500   1.409       .  A
C500        F501   1.357       .  S
C505        C506   1.405       .  A
C505        C510   1.404       .  A
C505        H512   1.083       .  S
C506        C507   1.403       .  A
C507        C508   1.393       .  A
C507        F514   1.358       .  S
C508        C509   1.401       .  A
C508        H513   1.084       .  S
C509        C510   1.406       .  A
C510        F511   1.358       .  S
C515        C516   1.404       .  A
C515        C520   1.401       .  A
C515        H522   1.083       .  S
C516        C517   1.413       .  A
C517        C518   1.402       .  A
C517        F524   1.357       .  S
C518        C519   1.404       .  A
C518        H523   1.083       .  S
C519        C520   1.412       .  A
C520        F521   1.357       .  S
C525        C526   1.402       .  A
C525        C530   1.392   1_554  A
C525        H532   1.084       .  S
C526        C527   1.408       .  A
C527        C528   1.408   1_554  A
C527        F534   1.357       .  S
C528        C529   1.407       .  A
C528        H533   1.083       .  S
C529        C530   1.405       .  A
C530        F531   1.358       .  S
C535        C536   1.403   1_565  A
C535        C540   1.396       .  A
C535        H542   1.083   1_565  S
C536        C537   1.414   1_545  A
C537        C538   1.399       .  A
C537        F544   1.357       .  S
C538        C539   1.402       .  A
C538        H543   1.083       .  S
C539        C540   1.410       .  A
C540        F541   1.358       .  S
