geometry optimzed in LAMMPS
_audit_creation_date              2020-12-01 
_audit_creation_method            'lammps2cif' 
_symmetry_space_group_name_H-M    'P1' 
_symmetry_Int_Tables_number       1 
_symmetry_cell_setting            triclinic 
loop_ 
_symmetry_equiv_pos_as_xyz 
  x,y,z 
_cell_length_a                    34.48562376 
_cell_length_b                    36.83666796467574 
_cell_length_c                    34.912736885134485 
_cell_angle_alpha                 89.93022616409833 
_cell_angle_beta                  89.9745281054413 
_cell_angle_gamma                 89.83960791139964 
loop_ 
_atom_site_label 
_atom_site_type_symbol 
_atom_site_fract_x 
_atom_site_fract_y 
_atom_site_fract_z 
_atom_site_charge 
N1          N  0.81634611  0.86939939  0.99066004    -0.03600
C2          C  0.80797077  0.86198943  0.02783529    -0.01000
C3          C  0.82622421  0.83087346  0.04045735    -0.23900
C4          C  0.84294075  0.81563073  0.00931233    -0.24100
C5          C  0.83151367  0.83628713  0.97853530    -0.01100
H6          H  0.82219474  0.81794003  0.06792283     0.12600
H7          H  0.85219985  0.78771747  0.00753719     0.12700
N8          N  0.78367236  0.11493919  0.00766796    -0.03600
C9          C  0.78009318  0.14447943  0.03124619    -0.01000
C10         C  0.80215184  0.17225194  0.01611143    -0.23900
C11         C  0.80346061  0.16460474  0.97769299    -0.24100
C12         C  0.78442843  0.13145296  0.97322979    -0.01100
H13         H  0.80477397  0.19936292  0.02775838     0.12600
H14         H  0.80759269  0.18521418  0.95613076     0.12700
N15         N  0.07311816  0.90069879  0.97607914    -0.03600
C16         C  0.09482955  0.90292305  0.00840646    -0.01000
C17         C  0.12521946  0.92632551  0.00283138    -0.23900
C18         C  0.12740971  0.93239481  0.96489672    -0.24100
C19         C  0.10021230  0.90943744  0.94845155    -0.01100
H20         H  0.14942551  0.93109204  0.02087667     0.12600
H21         H  0.15442527  0.94183112  0.95332250     0.12700
N22         N  0.78984305  0.00872361  0.87501772    -0.03600
C23         C  0.79995798  0.02982051  0.84430170    -0.01000
C24         C  0.82051380  0.00742175  0.81904865    -0.23900
C25         C  0.81003700  0.97285074  0.82764970    -0.24100
C26         C  0.78319319  0.97615146  0.85649515    -0.01100
H27         H  0.83337264  0.01240459  0.79183855     0.12600
H28         H  0.81076788  0.95143882  0.80649024     0.12700
N29         N  0.92615308  0.14618329  0.87921312    -0.03600
C30         C  0.89706508  0.14498293  0.85163423    -0.01000
C31         C  0.90595087  0.11556793  0.82870876    -0.23900
C32         C  0.94549260  0.11319617  0.83017105    -0.24100
C33         C  0.95643134  0.14198816  0.85320097    -0.01100
H34         H  0.88743513  0.10103499  0.80948524     0.12600
H35         H  0.96331338  0.09569082  0.81287900     0.12700
N36         N  0.93780684  0.91680094  0.84529944    -0.03600
C37         C  0.90762035  0.92998358  0.82447116    -0.01000
C38         C  0.91905344  0.95945494  0.80308370    -0.23900
C39         C  0.95851621  0.95685798  0.80256795    -0.24100
C40         C  0.96782972  0.92381526  0.82011847    -0.01100
H41         H  0.90145275  0.97629129  0.78449314     0.12600
H42         H  0.97609148  0.97485843  0.78616060     0.12700
N43         N  0.04421565  0.02055114  0.86365248    -0.03600
C44         C  0.05846879  0.05396268  0.86002518    -0.01000
C45         C  0.09775760  0.05533864  0.86662108    -0.23900
C46         C  0.10920660  0.02028192  0.87050116    -0.24100
C47         C  0.07661726  0.99951421  0.86364736    -0.01100
H48         H  0.11667747  0.07843191  0.86254962     0.12600
H49         H  0.13906492  0.01170359  0.86803378     0.12700
N50         N  0.93622705  0.86097514  0.10475026    -0.03600
C51         C  0.91175914  0.83409608  0.09127403    -0.01000
C52         C  0.93112181  0.81913627  0.05992901    -0.23900
C53         C  0.96990315  0.82562734  0.06619660    -0.24100
C54         C  0.97062359  0.84206962  0.10172110    -0.01100
H55         H  0.92029436  0.80210921  0.03747411     0.12600
H56         H  0.99363482  0.81204390  0.05179867     0.12700
N57         N  0.80194374  0.99875112  0.13660381    -0.03600
C58         C  0.79241154  0.03144052  0.15356045    -0.01000
C59         C  0.75343946  0.03799684  0.15212484    -0.23900
C60         C  0.73718508  0.00948124  0.13469524    -0.24100
C61         C  0.76549583  0.98256256  0.13277570    -0.01100
H62         H  0.73811770  0.06122957  0.16364340     0.12600
H63         H  0.70602313  0.00639317  0.13478767     0.12700
N64         N  0.93934603  0.11069180  0.15315619    -0.03600
C65         C  0.90665121  0.11062490  0.17613123    -0.01000
C66         C  0.90866585  0.07987721  0.19874851    -0.23900
C67         C  0.94753516  0.07288270  0.20248255    -0.24100
C68         C  0.96626292  0.09875977  0.18006648    -0.01100
H69         H  0.88760097  0.07168048  0.21987183     0.12600
H70         H  0.95889984  0.05940409  0.22758755     0.12700
Zr71       Zr  0.24784055  0.27643350  0.28689109     2.17500
O72         O  0.30851588  0.26622956  0.32119777    -0.51500
O73         O  0.25189673  0.33779614  0.30820367    -0.74700
O74         O  0.30243217  0.29375899  0.24949293    -0.81500
O75         O  0.19199833  0.25349192  0.37295886    -0.83200
O76         O  0.27500432  0.33146924  0.20819254    -0.78800
O77         O  0.25171627  0.24993991  0.34916973    -0.90500
O78         O  0.19380190  0.36523506  0.30119312    -0.76400
O79         O  0.21736966  0.31770143  0.24389803    -0.85900
O80         O  0.18319748  0.28741891  0.30880015    -0.85600
O81         O  0.25397862  0.24771685  0.22567289    -0.72400
O82         O  0.21947898  0.21772862  0.29287983    -0.84500
Zr83       Zr  0.12810681  0.23796259  0.21071465     2.26400
Zr84       Zr  0.22190845  0.28939654  0.18282138     2.06300
Zr85       Zr  0.15428754  0.22848114  0.31629257     2.10000
Zr86       Zr  0.15255935  0.32625442  0.26425073     1.78800
O87         O  0.16556215  0.17584230  0.35703657    -0.93300
O88         O  0.15814601  0.37596066  0.21851333    -0.41100
O89         O  0.12246063  0.26819448  0.27106820    -0.77800
O90         O  0.15565131  0.29758350  0.20375852    -0.96400
O91         O  0.19264296  0.23005322  0.18722992    -0.89700
O92         O  0.15998606  0.19861703  0.25518532    -0.92600
C93         C  0.22933897  0.36494420  0.31169297     1.01200
C94         C  0.22898969  0.25958404  0.37585643     1.14100
C95         C  0.30182429  0.32457552  0.23346136     1.04900
O96         O  0.20876435  0.34338043  0.14463017    -0.94700
O97         O  0.18524513  0.26317308  0.12737604    -0.90500
O98         O  0.12384269  0.26299797  0.14745741    -0.83600
C99         C  0.14885062  0.25600338  0.12189169     1.11500
O100        O  0.29029125  0.17560328  0.24830497    -0.96700
Zr101      Zr  0.22360049  0.19015105  0.23096565     1.88900
O102        O  0.12504716  0.17555952  0.19054919    -0.73400
O103        O  0.27514233  0.27479882  0.13958427    -0.52600
O104        O  0.26174044  0.17059515  0.17594365    -0.97300
O105        O  0.22444796  0.13516219  0.26975920    -0.54500
O106        O  0.18429588  0.15011291  0.19281235    -0.73900
C107        C  0.14804610  0.14883913  0.18539965     0.98500
O108        O  0.06239982  0.24126117  0.18498639    -0.62700
O109        O  0.10250212  0.24839940  0.35878069    -0.57500
O110        O  0.07395568  0.22655880  0.25183812    -0.94200
O111        O  0.09648950  0.18957536  0.29650989    -0.92600
O112        O  0.11447382  0.35441065  0.31492112    -0.93000
O113        O  0.08706521  0.34381468  0.24558356    -0.91800
C114        C  0.07158915  0.19645400  0.26948110     1.17300
H115        H  0.18321092  0.30148422  0.33216686     0.33200
H116        H  0.14158440  0.31268891  0.18589755     0.44100
H117        H  0.14844752  0.17471743  0.25672751     0.37600
H118        H  0.28022746  0.24327824  0.21729919     0.34100
H119        H  0.14293050  0.39611554  0.22976040     0.25900
H120        H  0.26677291  0.28438508  0.11439472     0.31800
H121        H  0.26436413  0.14397138  0.17901302     0.37700
H122        H  0.10351612  0.33373869  0.32943865     0.32200
H123        H  0.10582798  0.23345651  0.38214435     0.31100
H124        H  0.13936593  0.16840068  0.36553735     0.32800
H125        H  0.19698633  0.13084644  0.27661570     0.31700
H126        H  0.07068303  0.32274430  0.25242207     0.35700
H127        H  0.05700986  0.26739820  0.18088754     0.28500
H128        H  0.32352085  0.28890929  0.31881522     0.32700
H129        H  0.29581534  0.19117801  0.27073068     0.35500
H130        H  0.11028500  0.27312562  0.36671236     0.28200
H131        H  0.06291965  0.23045881  0.15913517     0.41000
H132        H  0.23374136  0.34888906  0.13192958     0.31100
H133        H  0.18551480  0.38383132  0.22008969     0.38700
H134        H  0.23673579  0.14242178  0.29418953     0.30500
H135        H  0.29663125  0.29090409  0.14745543     0.30600
H136        H  0.32299728  0.24820897  0.30573252     0.30900
N137        N  0.07537002  0.99312111  0.11078574    -0.03600
C138        C  0.09694107  0.02335414  0.10379556    -0.01000
C139        C  0.12445706  0.01684444  0.07634684    -0.23900
C140        C  0.12833135  0.98033289  0.07591311    -0.24100
C141        C  0.10337893  0.96677192  0.10405437    -0.01100
H142        H  0.14741707  0.03517189  0.06799877     0.12600
H143        H  0.15600873  0.97002804  0.06737917     0.12700
Zr144      Zr  0.24428800  0.72079961  0.26994309     2.17500
O145        O  0.28685623  0.67445386  0.24275552    -0.51500
O146        O  0.26731898  0.71939609  0.33433519    -0.74700
O147        O  0.30957308  0.74223404  0.26888275    -0.81500
O148        O  0.16297825  0.65287195  0.28015145    -0.83200
O149        O  0.30259277  0.79655012  0.29567514    -0.78800
O150        O  0.22821548  0.65976309  0.28694101    -0.90500
O151        O  0.22147107  0.73872173  0.37558691    -0.76400
O152        O  0.23810905  0.77540646  0.30552970    -0.85900
O153        O  0.18259766  0.71976905  0.30084262    -0.85600
O154        O  0.25380083  0.76741740  0.22318910    -0.72400
O155        O  0.19927726  0.71013893  0.21947400    -0.84500
Zr156      Zr  0.13826670  0.81322724  0.23759360     2.26400
Zr157      Zr  0.24601650  0.82255942  0.25952308     2.06300
Zr158      Zr  0.13656538  0.71039438  0.25038135     2.10000
Zr159      Zr  0.17656096  0.77416067  0.33548697     1.78800
O160        O  0.12714694  0.66775624  0.19793393    -0.93300
O161        O  0.20068525  0.82117734  0.37813879    -0.41100
O162        O  0.12968078  0.76665792  0.28506648    -0.77800
O163        O  0.18307839  0.82203998  0.28962488    -0.96400
O164        O  0.20051106  0.81428019  0.20800831    -0.89700
O165        O  0.14465314  0.75750398  0.20334177    -0.92600
C166        C  0.25355130  0.72235289  0.36789250     1.01200
C167        C  0.19704703  0.64157700  0.29124909     1.14100
C168        C  0.32041329  0.76561483  0.29323903     1.04900
O169        O  0.25439088  0.87190344  0.30504554    -0.94700
O170        O  0.21857091  0.87672474  0.22709942    -0.90500
O171        O  0.15743930  0.87519657  0.24727712    -0.83600
C172        C  0.18387988  0.88993024  0.22748375     1.11500
O173        O  0.25967142  0.72528789  0.14367280    -0.96700
Zr174      Zr  0.20665834  0.75851124  0.17408057     1.88900
O175        O  0.12380234  0.82262925  0.16993018    -0.73400
O176        O  0.30223730  0.84615753  0.22552065    -0.52600
O177        O  0.24416408  0.79336245  0.12789380    -0.97300
O178        O  0.17836045  0.71069008  0.13476356    -0.54500
O179        O  0.16600687  0.79336709  0.13190924    -0.73900
C180        C  0.13668774  0.81404102  0.13669013     0.98500
O181        O  0.08551875  0.85571208  0.25034049    -0.62700
O182        O  0.08435172  0.68208396  0.28653251    -0.57500
O183        O  0.07357148  0.79231065  0.24750918    -0.94200
O184        O  0.07461893  0.73666869  0.22318656    -0.92600
O185        O  0.13404207  0.73772921  0.37597156    -0.93000
O186        O  0.12507143  0.80979932  0.36503157    -0.91800
C187        C  0.05920977  0.76881991  0.22513054     1.17300
H188        H  0.18098561  0.70175542  0.32061855     0.33200
H189        H  0.17858477  0.84445474  0.30305815     0.44100
H190        H  0.12578502  0.75505818  0.18308416     0.37600
H191        H  0.27934159  0.76671109  0.21184691     0.34100
H192        H  0.20947115  0.80809407  0.40130716     0.25900
H193        H  0.32314650  0.82821871  0.23013823     0.31800
H194        H  0.25765926  0.81186671  0.14346526     0.37700
H195        H  0.15097738  0.71951359  0.38848609     0.32200
H196        H  0.07546227  0.70117258  0.30446971     0.31100
H197        H  0.13333758  0.64362973  0.20888191     0.32800
H198        H  0.19315143  0.71114637  0.11046077     0.31700
H199        H  0.10250393  0.80684181  0.34779894     0.35700
H200        H  0.08820903  0.87640618  0.23251298     0.28500
H201        H  0.30575182  0.68760320  0.22657754     0.32700
H202        H  0.27908402  0.72103872  0.16405927     0.35500
H203        H  0.06280298  0.67930949  0.26805160     0.28200
H204        H  0.09048224  0.86577885  0.27616969     0.41000
H205        H  0.28184203  0.87012355  0.31312293     0.31100
H206        H  0.22484535  0.82982313  0.36587447     0.38700
H207        H  0.15229354  0.71978643  0.12766138     0.30500
H208        H  0.29569375  0.84319274  0.19810281     0.30600
H209        H  0.27042425  0.66149271  0.22400407     0.30900
Zr210      Zr  0.72966648  0.24400822  0.20159033     2.17500
O211        O  0.75715794  0.27012210  0.14343434    -0.51500
O212        O  0.76052189  0.18522913  0.20079546    -0.74700
O213        O  0.79768233  0.25097419  0.21234405    -0.81500
O214        O  0.64133150  0.21221410  0.14655529    -0.83200
O215        O  0.80180210  0.23859755  0.27459425    -0.78800
O216        O  0.70755284  0.21381635  0.14582075    -0.90500
O217        O  0.73164455  0.14919297  0.24439742    -0.76400
O218        O  0.73963781  0.22369261  0.26528357    -0.85900
O219        O  0.67425753  0.20822411  0.21706785    -0.85600
O220        O  0.73902359  0.29857568  0.23790616    -0.72400
O221        O  0.67468576  0.28244775  0.18960028    -0.84500
Zr222      Zr  0.63544965  0.27856818  0.30417506     2.26400
Zr223      Zr  0.74660740  0.27746192  0.30276729     2.06300
Zr224      Zr  0.61828426  0.24616210  0.20534423     2.10000
Zr225      Zr  0.68551295  0.18753221  0.28011133     1.78800
O226        O  0.58824006  0.27316662  0.14899707    -0.93300
O227        O  0.72658133  0.16917605  0.33349772    -0.41100
O228        O  0.62798682  0.22365296  0.26927687    -0.77800
O229        O  0.69056142  0.24126493  0.31879461    -0.96400
O230        O  0.69098815  0.31489892  0.29181505    -0.89700
O231        O  0.62753061  0.30072381  0.24056657    -0.92600
C232        C  0.75652896  0.15460533  0.21744540     1.01200
C233        C  0.67505364  0.20406299  0.13193035     1.14100
C234        C  0.81476716  0.23461555  0.23958299     1.04900
O235        O  0.78472389  0.26037365  0.35873383    -0.94700
O236        O  0.71973915  0.31056107  0.36151911    -0.90500
O237        O  0.65382006  0.31089161  0.35863887    -0.83600
C238        C  0.68542307  0.31943619  0.37456192     1.11500
O239        O  0.72663976  0.35344295  0.17640981    -0.96700
Zr240      Zr  0.68294765  0.33608892  0.22819449     1.88900
O241        O  0.60358707  0.33627941  0.30289375    -0.73400
O242        O  0.79212972  0.32772659  0.29837666    -0.52600
O243        O  0.71912100  0.39033263  0.24538043    -0.97300
O244        O  0.64354759  0.36660842  0.17992712    -0.54500
O245        O  0.64036275  0.37462103  0.26796799    -0.73900
C246        C  0.61226485  0.36800901  0.29137708     0.98500
O247        O  0.60493960  0.25095507  0.36004186    -0.62700
O248        O  0.56831581  0.19961830  0.20439930    -0.57500
O249        O  0.56803308  0.26692480  0.29842804    -0.94200
O250        O  0.55854949  0.27696779  0.23640891    -0.92600
O251        O  0.65693320  0.13018783  0.26041435    -0.93000
O252        O  0.64301908  0.16026904  0.32776620    -0.91800
C253        C  0.54849279  0.28206259  0.27218983     1.17300
H254        H  0.67309531  0.18631229  0.20253824     0.33200
H255        H  0.69091667  0.23507687  0.34583817     0.44100
H256        H  0.60678863  0.31761266  0.23640957     0.37600
H257        H  0.76211546  0.31118588  0.22945880     0.34100
H258        H  0.72336446  0.14252962  0.33522492     0.25900
H259        H  0.78420655  0.34441743  0.31918727     0.31800
H260        H  0.74403866  0.38106481  0.25558199     0.37700
H261        H  0.63367390  0.13725046  0.24551781     0.32200
H262        H  0.57395493  0.18509685  0.18120256     0.31100
H263        H  0.59748238  0.29858852  0.14893882     0.32800
H264        H  0.64847884  0.35316227  0.15587070     0.31700
H265        H  0.64088390  0.17871609  0.34824463     0.35700
H266        H  0.62647942  0.24056059  0.37524392     0.28500
H267        H  0.77335273  0.25059329  0.13224798     0.32700
H268        H  0.72017630  0.33689143  0.15504421     0.35500
H269        H  0.57490367  0.18331687  0.22601433     0.28200
H270        H  0.59502437  0.27130101  0.37575362     0.41000
H271        H  0.76554411  0.25626818  0.37938909     0.31100
H272        H  0.75340282  0.17256958  0.32405343     0.38700
H273        H  0.65626974  0.39040193  0.17607207     0.30500
H274        H  0.81714905  0.31739851  0.30711047     0.30600
H275        H  0.77592529  0.28858389  0.15228473     0.30900
Zr276      Zr  0.62049599  0.72062056  0.27026349     2.17500
O277        O  0.56631301  0.69446421  0.23392797    -0.51500
O278        O  0.61952231  0.69730920  0.33693812    -0.74700
O279        O  0.62457710  0.66052259  0.24875206    -0.81500
O280        O  0.57218225  0.79268019  0.32193478    -0.83200
O281        O  0.68764375  0.64914173  0.25553908    -0.78800
O282        O  0.55833449  0.74375612  0.28791952    -0.90500
O283        O  0.66990287  0.72100146  0.37073586    -0.76400
O284        O  0.68652632  0.70685745  0.28580700    -0.85900
O285        O  0.64183530  0.76732792  0.31230272    -0.85600
O286        O  0.65418395  0.71720823  0.21011001    -0.72400
O287        O  0.60709084  0.77505290  0.23549932    -0.84500
Zr288      Zr  0.72460240  0.80902379  0.23590317     2.26400
Zr289      Zr  0.72054312  0.70499360  0.22609465     2.06300
Zr290      Zr  0.62563787  0.82214951  0.27984262     2.06200
Zr291      Zr  0.70799204  0.75501969  0.32547286     1.78800
O292        O  0.56414714  0.84886355  0.25911087    -0.93300
O293        O  0.75293371  0.70402027  0.33361542    -0.41100
O294        O  0.69053881  0.80733421  0.29260780    -0.77800
O295        O  0.74199949  0.75355425  0.26678403    -0.96400
O296        O  0.70893251  0.76111878  0.19270872    -0.89700
O297        O  0.65860430  0.81907305  0.21891727    -0.92600
C298        C  0.63845382  0.70284370  0.36829040     1.01200
C299        C  0.55337902  0.76205245  0.31797815     1.14100
C300        C  0.65132745  0.63952414  0.25913125     1.04900
O301        O  0.77595096  0.66914611  0.24734967    -0.94700
O302        O  0.78135115  0.72992150  0.19397166    -0.90500
O303        O  0.78337153  0.79066282  0.20524536    -0.83600
C304        C  0.79788894  0.76171944  0.19110542     1.11500
O305        O  0.58526681  0.74367600  0.15011850    -0.96700
Zr306      Zr  0.64326788  0.77233640  0.17595690     1.88900
O307        O  0.71853697  0.84288081  0.17708718    -0.73400
O308        O  0.71783881  0.66641125  0.16953981    -0.52600
O309        O  0.65141229  0.73549843  0.11861017    -0.97300
O310        O  0.60194149  0.82098842  0.15161164    -0.54500
O311        O  0.68761169  0.80708214  0.13503450    -0.73900
C312        C  0.71070238  0.83334213  0.14288426     0.98500
O313        O  0.77926907  0.83934003  0.26619472    -0.62700
O314        O  0.62577432  0.86442988  0.33342550    -0.57500
O315        O  0.71438520  0.86749813  0.26277955    -0.94200
O316        O  0.65322650  0.88064477  0.25121408    -0.92600
O317        O  0.71389826  0.77601670  0.39128534    -0.93000
O318        O  0.76469267  0.79038926  0.34346458    -0.91800
C319        C  0.68980435  0.88796895  0.24671128     1.17300
H320        H  0.62942471  0.76670582  0.33697238     0.33200
H321        H  0.76963352  0.75210560  0.27108103     0.44100
H322        H  0.65427320  0.83991238  0.20348021     0.37600
H323        H  0.64459857  0.69772175  0.19444095     0.34100
H324        H  0.76842768  0.71005544  0.35659926     0.25900
H325        H  0.73200527  0.68015246  0.14959249     0.31800
H326        H  0.64919088  0.75287166  0.09704601     0.37700
H327        H  0.69694470  0.79771268  0.39257381     0.32200
H328        H  0.62205872  0.88865083  0.32164431     0.31100
H329        H  0.56250002  0.87248418  0.27253650     0.32800
H330        H  0.57740777  0.81879683  0.16616296     0.31700
H331        H  0.78712344  0.77432765  0.33813983     0.35700
H332        H  0.79587710  0.84912699  0.24561726     0.28500
H333        H  0.57642400  0.68959054  0.20788131     0.32700
H334        H  0.56415743  0.75066870  0.16788047     0.35500
H335        H  0.60103811  0.85968306  0.34692997     0.28200
H336        H  0.79457410  0.81957936  0.27805466     0.41000
H337        H  0.78838571  0.66044238  0.22348817     0.31100
H338        H  0.73668916  0.68328536  0.34180803     0.38700
H339        H  0.59523002  0.81364117  0.12517006     0.30500
H340        H  0.73500622  0.64560948  0.17563778     0.30600
H341        H  0.54705686  0.71393987  0.22930344     0.30900
N342        N  0.06510960  0.12714821  0.00810722    -0.03600
C343        C  0.08193375  0.13331707  0.04346737    -0.01000
C344        C  0.10421349  0.10342264  0.05250407    -0.23900
C345        C  0.11472871  0.08911193  0.01798043    -0.24100
C346        C  0.09655066  0.11068063  0.99052320    -0.01100
H347        H  0.12305282  0.10143436  0.07712408     0.12600
H348        H  0.14172478  0.07461434  0.01502884     0.12700
Zr349      Zr  0.23872532  0.27772402  0.71691603     2.17500
O350        O  0.25810267  0.26758726  0.65009655    -0.51500
O351        O  0.27684172  0.33152061  0.73413286    -0.74700
O352        O  0.21928799  0.30424630  0.65853767    -0.81500
O353        O  0.31774945  0.24008909  0.76769131    -0.83200
O354        O  0.16651184  0.33532605  0.67704938    -0.78800
O355        O  0.28988765  0.23475451  0.71192729    -0.90500
O356        O  0.23962559  0.36650794  0.77270094    -0.76400
O357        O  0.19271797  0.31409279  0.74508422    -0.85900
O358        O  0.25697130  0.28237131  0.78303477    -0.85600
O359        O  0.17755683  0.25219985  0.70059039    -0.72400
O360        O  0.23914586  0.21633087  0.73938682    -0.84500
Zr361      Zr  0.14648620  0.24051021  0.81596412     2.26400
Zr362      Zr  0.13207408  0.29415884  0.72684614     2.06300
Zr363      Zr  0.25618490  0.22104893  0.80605580     2.10000
Zr364      Zr  0.20891823  0.32195470  0.80909394     1.78800
O365        O  0.28602157  0.16143844  0.79893731    -0.93300
O366        O  0.16949914  0.37468010  0.82554626    -0.41100
O367        O  0.20906522  0.26203720  0.83395486    -0.77800
O368        O  0.14573556  0.30136092  0.79384024    -0.96400
O369        O  0.13532241  0.23600731  0.75157406    -0.89700
O370        O  0.19268285  0.19752217  0.79245808    -0.92600
C371        C  0.26663879  0.36211774  0.74868977     1.01200
C372        C  0.31992069  0.24263744  0.73042498     1.14100
C373        C  0.19798840  0.33195847  0.65607789     1.04900
O374        O  0.09131547  0.34779646  0.73559325    -0.94700
O375        O  0.07002506  0.26601490  0.75553808    -0.90500
O376        O  0.08163235  0.26287016  0.81839454    -0.83600
C377        C  0.05886019  0.25786843  0.79042070     1.11500
O378        O  0.20598738  0.18031577  0.66471070    -0.96700
Zr379      Zr  0.17604980  0.19222958  0.72697234     1.88900
O380        O  0.10166179  0.19516430  0.79825011    -0.73400
O381        O  0.09478561  0.28558390  0.66797603    -0.52600
O382        O  0.12732696  0.17386499  0.68052744    -0.97300
O383        O  0.21147644  0.13461966  0.73036687    -0.54500
O384        O  0.13272226  0.15338534  0.76331261    -0.73900
C385        C  0.10611623  0.16302027  0.78677429     0.98500
O386        O  0.12793091  0.26284013  0.87945069    -0.62700
O387        O  0.30078976  0.23334069  0.85850796    -0.57500
O388        O  0.16291290  0.19910894  0.86504932    -0.94200
O389        O  0.22786092  0.18762187  0.86456861    -0.92600
O390        O  0.26573768  0.34920080  0.83938709    -0.93000
O391        O  0.19378333  0.32228958  0.87760638    -0.91800
C392        C  0.19295676  0.18407262  0.87908647     1.17300
H393        H  0.28238653  0.29273305  0.78751343     0.33200
H394        H  0.12621530  0.31582276  0.80648511     0.44100
H395        H  0.18978150  0.17388832  0.80388620     0.37600
H396        H  0.17459668  0.25073798  0.67316840     0.34100
H397        H  0.18817176  0.39498856  0.82720426     0.25900
H398        H  0.09054409  0.31035098  0.65771163     0.31800
H399        H  0.13515372  0.14907051  0.67269898     0.37700
H400        H  0.28330219  0.32869206  0.84547885     0.32200
H401        H  0.31908298  0.25150113  0.84804425     0.31100
H402        H  0.31207290  0.16407313  0.81049697     0.32800
H403        H  0.19816497  0.11837703  0.71203867     0.31700
H404        H  0.21651764  0.33278467  0.89081758     0.35700
H405        H  0.12441767  0.28936954  0.87653141     0.28500
H406        H  0.25088861  0.24215711  0.64435854     0.32700
H407        H  0.23425514  0.17945217  0.66962007     0.35500
H408        H  0.28504109  0.24704493  0.87732953     0.28200
H409        H  0.10176309  0.25369035  0.88569018     0.41000
H410        H  0.10834658  0.36582288  0.74809134     0.31100
H411        H  0.15425027  0.37987468  0.80215970     0.38700
H412        H  0.20537403  0.12427890  0.75584261     0.30500
H413        H  0.11296910  0.27418445  0.64960877     0.30600
H414        H  0.28657737  0.26752919  0.64876551     0.30900
Zr415      Zr  0.11008523  0.78273944  0.77116235     2.17500
O416        O  0.06926159  0.76425395  0.82477457    -0.51500
O417        O  0.09420822  0.84620014  0.77467756    -0.74700
O418        O  0.13196674  0.79281260  0.83472796    -0.81500
O419        O  0.04079392  0.79941528  0.69208852    -0.83200
O420        O  0.19786417  0.79504176  0.83244093    -0.78800
O421        O  0.04405344  0.77739766  0.75075685    -0.90500
O422        O  0.14552299  0.87689261  0.75162661    -0.76400
O423        O  0.17214846  0.81005553  0.76549838    -0.85900
O424        O  0.11312398  0.81067981  0.70977692    -0.85600
O425        O  0.15580489  0.73500309  0.78212848    -0.72400
O426        O  0.09503814  0.73447929  0.72825623    -0.84500
Zr427      Zr  0.20501977  0.74342176  0.66690174     2.26400
Zr428      Zr  0.21823545  0.76257566  0.77347733     2.06300
Zr429      Zr  0.09649210  0.76300778  0.66580887     2.10000
Zr430      Zr  0.17488452  0.83750909  0.70437266     1.78800
O431        O  0.04057723  0.72394716  0.65598510    -0.93300
O432        O  0.22768192  0.87194331  0.73317003    -0.41100
O433        O  0.15955967  0.79156565  0.65792712    -0.77800
O434        O  0.22151768  0.79022383  0.71101825    -0.96400
O435        O  0.20509769  0.71559569  0.72860526    -0.89700
O436        O  0.14350369  0.71568261  0.67626818    -0.92600
C437        C  0.11417254  0.87508693  0.77113469     1.01200
C438        C  0.03024135  0.80064316  0.72759769     1.14100
C439        C  0.16478051  0.80185633  0.84848216     1.04900
O440        O  0.27274541  0.80125766  0.79013685    -0.94700
O441        O  0.27829462  0.73682798  0.74625175    -0.90500
O442        O  0.27066679  0.72836342  0.68234235    -0.83600
C443        C  0.29065125  0.72639116  0.71311374     1.11500
O444        O  0.10260293  0.66536053  0.78823417    -0.96700
Zr445      Zr  0.14348283  0.68828663  0.73671479     1.88900
O446        O  0.20891607  0.68175595  0.64790098    -0.73400
O447        O  0.23659121  0.71895707  0.82284302    -0.52600
O448        O  0.17390793  0.64234289  0.77696495    -0.97300
O449        O  0.09538187  0.65055885  0.70453207    -0.54500
O450        O  0.18564766  0.65025227  0.69838340    -0.73900
C451        C  0.20383929  0.65248367  0.66639897     0.98500
O452        O  0.25227403  0.76291781  0.61925859    -0.62700
O453        O  0.07888478  0.79877203  0.60979702    -0.57500
O454        O  0.17486490  0.74813696  0.60511041    -0.94200
O455        O  0.11562784  0.72562074  0.60923198    -0.92600
O456        O  0.13950645  0.88247102  0.66698616    -0.93000
O457        O  0.21471192  0.86292373  0.65335964    -0.91800
C458        C  0.15002933  0.72464053  0.59489075     1.17300
H459        H  0.09566876  0.83145071  0.70720226     0.33200
H460        H  0.24729674  0.79916676  0.70590787     0.44100
H461        H  0.13957353  0.69483000  0.65982929     0.37600
H462        H  0.15302190  0.72565147  0.80770700     0.34100
H463        H  0.25121140  0.86592241  0.71819868     0.25900
H464        H  0.25749858  0.73117970  0.83730896     0.31800
H465        H  0.20042195  0.65161930  0.78157039     0.37700
H466        H  0.13486217  0.87058625  0.64199229     0.32200
H467        H  0.05045087  0.79580082  0.60755376     0.31100
H468        H  0.03484188  0.72601432  0.62828159     0.32800
H469        H  0.08101662  0.66740484  0.68757122     0.31700
H470        H  0.22020296  0.84217486  0.63621268     0.35700
H471        H  0.25120829  0.74438826  0.59877049     0.28500
H472        H  0.05586074  0.74205444  0.81597975     0.32700
H473        H  0.07997961  0.68195727  0.78860590     0.35500
H474        H  0.08235205  0.82426704  0.61801967     0.28200
H475        H  0.24109297  0.78503175  0.60746953     0.41000
H476        H  0.26279745  0.82628018  0.78676237     0.31100
H477        H  0.22199744  0.89761441  0.72681275     0.38700
H478        H  0.07622126  0.64366824  0.72432223     0.30500
H479        H  0.21443706  0.71836790  0.84085984     0.30600
H480        H  0.04858284  0.78281993  0.82656579     0.30900
Zr481      Zr  0.71358488  0.25681417  0.82857391     2.17500
O482        O  0.75210079  0.28926064  0.87654150    -0.51500
O483        O  0.72828881  0.19127528  0.82157214    -0.74700
O484        O  0.69302989  0.23856264  0.89045354    -0.81500
O485        O  0.79176163  0.27833970  0.76036278    -0.83200
O486        O  0.64260398  0.20637070  0.87183356    -0.78800
O487        O  0.78023710  0.25483622  0.81924419    -0.90500
O488        O  0.69167665  0.16453796  0.77563780    -0.76400
O489        O  0.65852697  0.22132281  0.81127378    -0.85900
O490        O  0.71918785  0.24668804  0.76148798    -0.85600
O491        O  0.66005896  0.29086990  0.85311976    -0.72400
O492        O  0.71748990  0.31355468  0.80160062    -0.84500
Zr493      Zr  0.61703096  0.31084414  0.74290323     2.26400
Zr494      Zr  0.60468100  0.25577398  0.83361169     2.06300
Zr495      Zr  0.72743610  0.30631444  0.73612023     2.10000
Zr496      Zr  0.66184605  0.21509958  0.74349005     1.78800
O497        O  0.77107896  0.35807353  0.73351965    -0.93300
O498        O  0.61133053  0.16896513  0.74253862    -0.41100
O499        O  0.66933562  0.27503133  0.71846868    -0.77800
O500        O  0.60788958  0.24972486  0.76523806    -0.96400
O501        O  0.61589148  0.31338022  0.80824621    -0.89700
O502        O  0.67461632  0.34278967  0.75823169    -0.92600
C503        C  0.71641487  0.16332101  0.80278677     1.01200
C504        C  0.80283392  0.26157153  0.79178839     1.14100
C505        C  0.67529137  0.20891517  0.89081621     1.04900
O506        O  0.55728023  0.20874637  0.84905642    -0.94700
O507        O  0.54220263  0.27065610  0.79627888    -0.90500
O508        O  0.55982446  0.32500846  0.77681222    -0.83600
C509        C  0.53460934  0.30044132  0.77752393     1.11500
O510        O  0.69318392  0.35708974  0.89031542    -0.96700
Zr511      Zr  0.66752315  0.34971485  0.82544915     1.88900
O512        O  0.60805815  0.37599102  0.74638071    -0.73400
O513        O  0.57710180  0.27791032  0.89346215    -0.52600
O514        O  0.61562413  0.37876083  0.86197847    -0.97300
O515        O  0.71712748  0.39719257  0.82341442    -0.54500
O516        O  0.63682187  0.40239370  0.79699314    -0.73900
C517        C  0.61656567  0.40370217  0.76649660     0.98500
O518        O  0.56843975  0.29018185  0.69591190    -0.62700
O519        O  0.75477662  0.28354082  0.67606321    -0.57500
O520        O  0.63600747  0.31972592  0.67841716    -0.94200
O521        O  0.69486045  0.34462005  0.68302680    -0.92600
O522        O  0.70519924  0.18653594  0.69737553    -0.93000
O523        O  0.62856732  0.21140870  0.68195812    -0.91800
C524        C  0.66030248  0.34301363  0.66756972     1.17300
H525        H  0.74091880  0.23127604  0.75548229     0.33200
H526        H  0.58569884  0.23871494  0.75555123     0.44100
H527        H  0.67716663  0.36650575  0.74618230     0.37600
H528        H  0.66050846  0.29364621  0.88049951     0.34100
H529        H  0.62177941  0.14950480  0.72589391     0.25900
H530        H  0.59910831  0.28804662  0.90808509     0.31800
H531        H  0.60035497  0.35850353  0.87284809     0.37700
H532        H  0.71139568  0.20600610  0.67880889     0.32200
H533        H  0.76066510  0.25764490  0.68105024     0.31100
H534        H  0.78850619  0.35476498  0.75578148     0.32800
H535        H  0.73326825  0.39123213  0.80081723     0.31700
H536        H  0.63609854  0.23358603  0.66778370     0.35700
H537        H  0.56198602  0.26523620  0.70358591     0.28500
H538        H  0.73473589  0.29354142  0.89866480     0.32700
H539        H  0.68341075  0.38093362  0.89923541     0.35500
H540        H  0.73278242  0.28300875  0.65784908     0.28200
H541        H  0.58038468  0.28639685  0.67043929     0.41000
H542        H  0.54355722  0.20359641  0.82476851     0.31100
H543        H  0.61161802  0.15835594  0.76860980     0.38700
H544        H  0.73454378  0.39313942  0.84552627     0.30500
H545        H  0.56141097  0.29929209  0.88591703     0.30600
H546        H  0.75660587  0.31375263  0.86575995     0.30900
Zr547      Zr  0.70132480  0.79840825  0.81169870     2.17500
O548        O  0.69129951  0.80916364  0.88003956    -0.51500
O549        O  0.74933936  0.84277469  0.79702002    -0.74700
O550        O  0.75922883  0.78211960  0.84264399    -0.81500
O551        O  0.65087053  0.87331580  0.77042533    -0.83200
O552        O  0.76135227  0.72044576  0.84347283    -0.78800
O553        O  0.66681911  0.85182852  0.82815197    -0.90500
O554        O  0.78614025  0.81218990  0.75504465    -0.76400
O555        O  0.74413096  0.76014771  0.77668579    -0.85900
O556        O  0.69729043  0.82123158  0.74790804    -0.85600
O557        O  0.68189373  0.73749423  0.82458946    -0.72400
O558        O  0.63396997  0.79620769  0.79779228    -0.84500
Zr559      Zr  0.65026373  0.71713674  0.70755698     2.26400
Zr560      Zr  0.72308509  0.69914568  0.78602421     2.06300
Zr561      Zr  0.63005965  0.81728880  0.73290872     2.10000
Zr562      Zr  0.73935335  0.78244606  0.71349377     1.78800
O563        O  0.56494588  0.83716372  0.74994672    -0.93300
O564        O  0.80002160  0.75450060  0.69304258    -0.41100
O565        O  0.67237282  0.77803305  0.69649098    -0.77800
O566        O  0.71886557  0.72078336  0.72151143    -0.96400
O567        O  0.65537219  0.69552921  0.77156046    -0.89700
O568        O  0.60854751  0.75588322  0.74397057    -0.92600
C569        C  0.78160805  0.83683364  0.78053708     1.01200
C570        C  0.66390080  0.87826561  0.80511647     1.14100
C571        C  0.77151682  0.75231281  0.85605535     1.04900
O572        O  0.78633242  0.67660171  0.76603527    -0.94700
O573        O  0.70173358  0.64452852  0.74705093    -0.90500
O574        O  0.69014284  0.66729853  0.68910605    -0.83600
C575        C  0.69225687  0.64022203  0.71121419     1.11500
O576        O  0.60423166  0.76051080  0.87192555    -0.96700
Zr577      Zr  0.61486549  0.73487532  0.80844977     1.88900
O578        O  0.58888652  0.68746862  0.72197107    -0.73400
O579        O  0.72380975  0.65009239  0.83286657    -0.52600
O580        O  0.61389232  0.68563310  0.85514153    -0.97300
O581        O  0.54712310  0.75393007  0.80999820    -0.54500
O582        O  0.57158594  0.69069023  0.78443943    -0.73900
C583        C  0.56662258  0.67980857  0.75033992     0.98500
O584        O  0.62232897  0.68075078  0.65605746    -0.62700
O585        O  0.62802203  0.86492409  0.68456335    -0.57500
O586        O  0.64372904  0.76039589  0.65695174    -0.94200
O587        O  0.59589991  0.79596250  0.67385514    -0.92600
O588        O  0.74572241  0.84143408  0.68248473    -0.93000
O589        O  0.74834312  0.77427477  0.64488518    -0.91800
C590        C  0.61029079  0.77289550  0.65001448     1.17300
H591        H  0.70637497  0.84586557  0.74450801     0.33200
H592        H  0.73645032  0.70699546  0.70531908     0.44100
H593        H  0.58187597  0.75399954  0.73563477     0.37600
H594        H  0.68541246  0.73194751  0.85141036     0.34100
H595        H  0.81981357  0.77369919  0.69573987     0.25900
H596        H  0.70582231  0.63164162  0.82263067     0.31800
H597        H  0.63788107  0.68842870  0.87038916     0.37700
H598        H  0.72131061  0.84449465  0.66790394     0.32200
H599        H  0.61593325  0.88593419  0.69763963     0.31100
H600        H  0.56703512  0.84490298  0.77700979     0.32800
H601        H  0.54789789  0.78067067  0.80733305     0.31700
H602        H  0.73460728  0.75138710  0.63898409     0.35700
H603        H  0.64352458  0.67626967  0.63758971     0.28500
H604        H  0.71711184  0.81169347  0.89200193     0.32700
H605        H  0.60267169  0.78707288  0.86781393     0.35500
H606        H  0.65543470  0.87201137  0.68089155     0.28200
H607        H  0.61648343  0.65646214  0.66670274     0.41000
H608        H  0.80464566  0.69590681  0.77375644     0.31100
H609        H  0.80631649  0.73683725  0.71351538     0.38700
H610        H  0.53827898  0.74960457  0.83658855     0.30500
H611        H  0.74984103  0.63896473  0.83021771     0.30600
H612        H  0.68093363  0.78612416  0.89033484     0.30900
N613        N  0.42482550  0.60298396  0.66304886    -0.03600
C614        C  0.44494133  0.58811644  0.69264406    -0.01000
C615        C  0.41865627  0.56791776  0.71383523    -0.23900
C616        C  0.38337085  0.58303750  0.70608428    -0.24100
C617        C  0.38994196  0.60999081  0.67950288    -0.01100
H618        H  0.42315433  0.55048690  0.73795175     0.12600
H619        H  0.36064930  0.58340148  0.72718037     0.12700
N620        N  0.31887993  0.50842161  0.65848292    -0.03600
C621        C  0.32874834  0.49114303  0.69131438    -0.01000
C622        C  0.32371307  0.51339946  0.72287370    -0.23900
C623        C  0.30661304  0.54393476  0.70990356    -0.24100
C624        C  0.30305218  0.54008742  0.67091991    -0.01100
H625        H  0.32426275  0.50546091  0.75275067     0.12600
H626        H  0.29316519  0.56458217  0.72761613     0.12700
N627        N  0.43066367  0.36259210  0.62591126    -0.03600
C628        C  0.46496112  0.34419337  0.63294799    -0.01000
C629        C  0.46938916  0.32023214  0.60304437    -0.23900
C630        C  0.43193899  0.31225024  0.59232999    -0.24100
C631        C  0.40802363  0.33288208  0.61636165    -0.01100
H632        H  0.49372391  0.30206404  0.59876880     0.12600
H633        H  0.42545682  0.28660818  0.57905035     0.12700
N634        N  0.56148085  0.51995895  0.63668016    -0.03600
C635        C  0.54496139  0.50928344  0.67008698    -0.01000
C636        C  0.52451279  0.53911310  0.68407207    -0.23900
C637        C  0.54110010  0.56892392  0.66705394    -0.24100
C638        C  0.57123480  0.55514296  0.64605268    -0.01100
H639        H  0.50960897  0.54143181  0.71078508     0.12600
H640        H  0.54226610  0.59512112  0.68062238     0.12700
N641        N  0.42456364  0.40661951  0.35998446    -0.03600
C642        C  0.45894811  0.40675376  0.33948481    -0.01000
C643        C  0.45881747  0.43821394  0.31781052    -0.23900
C644        C  0.42016428  0.44553173  0.31146850    -0.24100
C645        C  0.39964947  0.41929838  0.33182325    -0.01100
H646        H  0.48171382  0.44691461  0.29873300     0.12600
H647        H  0.41031752  0.45987821  0.28623350     0.12700
N648        N  0.54820778  0.52373847  0.37248446    -0.03600
C649        C  0.56526579  0.49052524  0.37027832    -0.01000
C650        C  0.60070334  0.49110717  0.38785982    -0.23900
C651        C  0.60759060  0.52624799  0.39787210    -0.24100
C652        C  0.58156008  0.54461622  0.37507074    -0.01100
H653        H  0.62266285  0.47055844  0.38436219     0.12600
H654        H  0.63534971  0.53633418  0.40740412     0.12700
N655        N  0.42408310  0.65876599  0.41381272    -0.03600
C656        C  0.44812869  0.68511364  0.42901727    -0.01000
C657        C  0.42868604  0.70043411  0.45989039    -0.23900
C658        C  0.39069178  0.69258162  0.45361221    -0.24100
C659        C  0.39066722  0.67929040  0.41672484    -0.01100
H660        H  0.43852151  0.71968788  0.48081331     0.12600
H661        H  0.36682002  0.70283397  0.47004349     0.12700
N662        N  0.28213349  0.51537502  0.40159000    -0.03600
C663        C  0.26308816  0.48388707  0.40807049    -0.01000
C664        C  0.23410975  0.48836267  0.43457164    -0.23900
C665        C  0.22979211  0.52490959  0.43728838    -0.24100
C666        C  0.25311357  0.54010365  0.40879395    -0.01100
H667        H  0.21376011  0.46829637  0.44487325     0.12600
H668        H  0.20785337  0.53693376  0.45466254     0.12700
N669        N  0.53615698  0.64938805  0.52698027    -0.03600
C670        C  0.53874719  0.66466150  0.49126629    -0.01000
C671        C  0.51083453  0.69093479  0.48802493    -0.23900
C672        C  0.49866890  0.69904597  0.52372429    -0.24100
C673        C  0.52110813  0.67810111  0.54810796    -0.01100
H674        H  0.51021942  0.71118255  0.46594809     0.12600
H675        H  0.48708953  0.72575470  0.52909100     0.12700
N676        N  0.57580290  0.40514587  0.50427361    -0.03600
C677        C  0.57799524  0.37555824  0.48037024    -0.01000
C678        C  0.55582387  0.34813387  0.49634588    -0.23900
C679        C  0.55832874  0.35444321  0.53501793    -0.24100
C680        C  0.57693585  0.38754077  0.53819207    -0.01100
H681        H  0.55057965  0.32170438  0.48391058     0.12600
H682        H  0.55485984  0.33421852  0.55726328     0.12700
N683        N  0.28363205  0.62067601  0.51570033    -0.03600
C684        C  0.28263857  0.62495251  0.47742476    -0.01000
C685        C  0.25180137  0.60642219  0.46203212    -0.23900
C686        C  0.22907881  0.59596175  0.49192345    -0.24100
C687        C  0.24501331  0.61270418  0.52339376    -0.01100
H688        H  0.24168780  0.60922140  0.43303292     0.12600
H689        H  0.19853647  0.59007636  0.48851553     0.12700
N690        N  0.30051747  0.37814406  0.50858678    -0.03600
C691        C  0.30741879  0.34392494  0.49333764    -0.01000
C692        C  0.29525348  0.31786555  0.51942261    -0.23900
C693        C  0.27059537  0.33441815  0.54362170    -0.24100
C694        C  0.27322479  0.37120523  0.53691389    -0.01100
H695        H  0.29530162  0.28866352  0.51555653     0.12600
H696        H  0.25278494  0.32083278  0.56475858     0.12700
O697        O  0.82581289  0.93432367  0.99671701    -0.86600
O698        O  0.04379553  0.95796343  0.98238347    -0.86800
O699        O  0.93938520  0.91620750  0.91521140    -0.88500
O700        O  0.93600143  0.89398382  0.04498564    -0.87200
O701        O  0.93499847  0.92795274  0.10015310    -0.86800
O702        O  0.93213928  0.96955924  0.88221066    -0.88200
O703        O  0.00376868  0.90862503  0.97997523    -0.86700
O704        O  0.87674169  0.89704032  0.98059206    -0.86300
Zr705      Zr  0.93551334  0.93300307  0.98616180     2.84300
O706        O  0.97219633  0.96713583  0.03064504    -1.08200
O707        O  0.88949605  0.97313164  0.95719343    -1.09000
C708        C  0.84039769  0.90233773  0.98777867     1.06500
C709        C  0.03814606  0.92343339  0.97899265     1.06400
C710        C  0.93764491  0.93485186  0.88315253     1.09400
C711        C  0.93546669  0.89632076  0.08241594     1.07200
H712        H  0.98152948  0.96870974  0.93480555     0.32700
O713        O  0.96517555  0.98014394  0.95347192    -1.29200
H714        H  0.88224658  0.94411811  0.04718781     0.32400
O715        O  0.89621912  0.96238557  0.03368533    -1.30900
O716        O  0.03727286  0.06905716  0.00144905    -0.86600
O717        O  0.81049242  0.05603280  0.00911190    -0.88100
O718        O  0.98033289  0.02217097  0.88591918    -0.86700
O719        O  0.00476055  0.99171012  0.10308753    -0.86800
O720        O  0.86897513  0.99651119  0.11468679    -0.86500
O721        O  0.85554553  0.01631254  0.89561697    -0.86300
O722        O  0.92544417  0.12390508  0.94783722    -0.86600
O723        O  0.93110431  0.10396512  0.08309569    -0.86100
O724        O  0.92091428  0.08334490  0.89859456    -0.87200
O725        O  0.93767867  0.05243233  0.12023705    -0.86300
O726        O  0.02996554  0.01573401  0.92901034    -0.86700
O727        O  0.81076557  0.00254865  0.94159136    -0.86500
O728        O  0.81997634  0.99646649  0.07005933    -0.86100
O729        O  0.04434268  0.99974243  0.05106821    -0.86500
O730        O  0.99384282  0.11491828  0.01197517    -0.86800
O731        O  0.85304489  0.10429545  0.01363692    -0.88100
Zr732      Zr  0.00454758  0.01175433  0.99487658     2.83100
Zr733      Zr  0.84911510  0.99994782  0.00381730     2.83500
Zr734      Zr  0.92130111  0.02056717  0.92420147     2.84100
Zr735      Zr  0.93409217  0.99532971  0.07939879     2.83400
Zr736      Zr  0.92491407  0.08496410  0.01163666     2.84200
O737        O  0.89244611  0.03471483  0.04332529    -1.08700
O738        O  0.96235302  0.05385352  0.96517403    -1.08200
C739        C  0.02985530  0.10294865  0.00732953     1.06400
C740        C  0.81760442  0.09047401  0.01153200     1.09100
C741        C  0.01652219  0.01852825  0.89439798     1.06600
C742        C  0.03940017  0.99392706  0.08728006     1.07000
C743        C  0.83195800  0.99687804  0.10563566     1.06600
C744        C  0.82001391  0.00917134  0.90589681     1.06100
C745        C  0.92383887  0.11671083  0.91049870     1.06500
C746        C  0.93600643  0.08802346  0.11681675     1.06000
H747        H  0.86561115  0.06321526  0.95818349     0.32700
O748        O  0.88368047  0.04792180  0.97177592    -1.29800
H749        H  0.98323941  0.05338730  0.05788282     0.32700
O750        O  0.96589341  0.04054550  0.04150174    -1.31200
O751        O  0.41995503  0.59810575  0.59526376    -0.86600
O752        O  0.43254702  0.39130276  0.56116326    -0.86800
O753        O  0.37745245  0.49532062  0.62856411    -0.88500
O754        O  0.50088087  0.49952775  0.61324163    -0.87200
O755        O  0.54361313  0.52214056  0.56928434    -0.86800
O756        O  0.32517801  0.50649182  0.58983501    -0.88200
O757        O  0.43403124  0.42816602  0.61394250    -0.86700
O758        O  0.43181578  0.54686898  0.63073208    -0.86300
Zr759      Zr  0.43482814  0.49349497  0.58869569     2.84300
O760        O  0.47408569  0.46949615  0.53988207    -1.08200
O761        O  0.38905086  0.53441634  0.56173423    -1.09000
C762        C  0.42550818  0.58154808  0.62766638     1.06500
C763        C  0.43237236  0.39552803  0.59892006     1.06400
C764        C  0.34132330  0.50301123  0.62351379     1.09400
C765        C  0.53448121  0.51314272  0.60427061     1.07200
H766        H  0.38048708  0.44389259  0.56165858     0.32700
O767        O  0.39387952  0.46157150  0.54723680    -1.29200
H768        H  0.47931777  0.55616398  0.57211531     0.32400
O769        O  0.46429624  0.54175783  0.55444526    -1.30900
O770        O  0.43001616  0.41292073  0.42993644    -0.86600
O771        O  0.42215629  0.62375170  0.47175241    -0.88100
O772        O  0.31723861  0.44104558  0.51673811    -0.86700
O773        O  0.54780366  0.46421974  0.50369225    -0.86800
O774        O  0.52791348  0.58449234  0.51711425    -0.86500
O775        O  0.30816669  0.56003878  0.52404112    -0.86300
O776        O  0.35140407  0.52062074  0.41001094    -0.86600
O777        O  0.48240128  0.52501164  0.39605676    -0.86100
O778        O  0.31166630  0.51074823  0.46181544    -0.87200
O779        O  0.53215325  0.52500727  0.43976096    -0.86300
O780        O  0.36638422  0.40116242  0.50131444    -0.86700
O781        O  0.35092917  0.60756478  0.52518587    -0.86500
O782        O  0.47569742  0.61974129  0.53309183    -0.86100
O783        O  0.50594769  0.41550750  0.50030999    -0.86500
O784        O  0.42119461  0.46452835  0.39359857    -0.86800
O785        O  0.42227500  0.59101174  0.41604632    -0.88100
Zr786      Zr  0.43322031  0.43286584  0.50042002     2.83100
Zr787      Zr  0.41840667  0.58149504  0.52646058     2.83500
Zr788      Zr  0.34775393  0.50268886  0.52101590     2.84100
Zr789      Zr  0.50625930  0.51882344  0.50731211     2.83400
Zr790      Zr  0.42045852  0.52199188  0.43432663     2.84200
O791        O  0.45864056  0.55600305  0.47809842    -1.08700
O792        O  0.38968725  0.47686318  0.47362033    -1.08200
C793        C  0.42512621  0.42901419  0.39652795     1.06400
C794        C  0.42314136  0.62244231  0.43458414     1.09100
C795        C  0.32948463  0.40839063  0.50859159     1.06600
C796        C  0.54131898  0.42958758  0.50192294     1.07000
C797        C  0.51242273  0.61580491  0.52662703     1.06600
C798        C  0.31564571  0.59480865  0.52361460     1.06100
C799        C  0.31715107  0.51646205  0.42560085     1.06500
C800        C  0.51931868  0.52554702  0.40435119     1.06000
H801        H  0.36256481  0.56292736  0.47152088     0.32700
O802        O  0.38098110  0.54693075  0.48379004    -1.29800
H803        H  0.48064122  0.47181678  0.44844454     0.32700
O804        O  0.46438422  0.48287777  0.46764596    -1.31200
C805        C  0.60634009  0.72882377  0.59465989    -0.02000
C806        C  0.58772054  0.75500299  0.61813119     0.07700
C807        C  0.54719008  0.75775530  0.61566854    -0.02100
C808        C  0.52534726  0.73050310  0.59683926    -0.02100
C809        C  0.54397920  0.70100176  0.57691734     0.07800
C810        C  0.58517470  0.70030041  0.57751218    -0.02300
Br811      Br  0.61477161  0.66097796  0.55559903    -0.00900
Br812      Br  0.66108144  0.73344717  0.58255394    -0.00900
Br813      Br  0.46934226  0.73424210  0.60123360    -0.00900
Br814      Br  0.52168775  0.80123637  0.63394645    -0.00900
C815        C  0.65275810  0.58354037  0.71889961    -0.02000
C816        C  0.67545094  0.60540242  0.69515569     0.07700
C817        C  0.67137680  0.60026389  0.65487716    -0.02100
C818        C  0.64008566  0.57968840  0.63947918    -0.02100
C819        C  0.61088445  0.56571029  0.66359646     0.07800
C820        C  0.61898579  0.56672170  0.70440929    -0.02300
Br821      Br  0.58513694  0.55016624  0.74467850    -0.00900
Br822      Br  0.66788632  0.57695511  0.77194403    -0.00900
Br823      Br  0.63595279  0.57182925  0.58509956    -0.00900
Br824      Br  0.70884068  0.62144852  0.62056103    -0.00900
C825        C  0.52196414  0.62744686  0.76274629    -0.02000
C826        C  0.53201574  0.65857145  0.74199838     0.07700
C827        C  0.51059386  0.66852873  0.71015779    -0.02100
C828        C  0.48789302  0.64299292  0.69187416    -0.02100
C829        C  0.47578967  0.61107180  0.71158850     0.07800
C830        C  0.49212218  0.60468076  0.74903948    -0.02300
Br831      Br  0.47793885  0.56572915  0.78319929    -0.00900
Br832      Br  0.54873943  0.61671458  0.81024447    -0.00900
Br833      Br  0.48592098  0.64877168  0.63714046    -0.00900
Br834      Br  0.51030905  0.71834651  0.69373565    -0.00900
C835        C  0.60503333  0.37991793  0.63775755    -0.02000
C836        C  0.64464552  0.36782798  0.63636198     0.07700
C837        C  0.66488940  0.37419675  0.60201492    -0.02100
C838        C  0.64484931  0.38785095  0.56937280    -0.02100
C839        C  0.60423465  0.39499627  0.57067517     0.07800
C840        C  0.58658705  0.39579005  0.60614699    -0.02300
Br841      Br  0.53416711  0.41470220  0.60875486    -0.00900
Br842      Br  0.57056209  0.36928725  0.67834417    -0.00900
Br843      Br  0.67492369  0.40006823  0.52549346    -0.00900
Br844      Br  0.71832455  0.35925256  0.59777171    -0.00900
C845        C  0.47735665  0.29168993  0.68512174    -0.02000
C846        C  0.47559337  0.32971596  0.67378822     0.07700
C847        C  0.48178362  0.35494899  0.70353793    -0.02100
C848        C  0.49175368  0.34361101  0.74113209    -0.02100
C849        C  0.50116391  0.30714045  0.74977944     0.07800
C850        C  0.48962159  0.28106620  0.72280540    -0.02300
Br851      Br  0.49218648  0.23057231  0.73768278    -0.00900
Br852      Br  0.46401900  0.25177598  0.65173103    -0.00900
Br853      Br  0.49074547  0.37776216  0.78241965    -0.00900
Br854      Br  0.47864227  0.40591768  0.69237304    -0.00900
C855        C  0.56710715  0.45151133  0.75889911    -0.02000
C856        C  0.60405416  0.43849039  0.75028467     0.07700
C857        C  0.62269366  0.44981677  0.71688254    -0.02100
C858        C  0.60252988  0.46960727  0.68887393    -0.02100
C859        C  0.56350861  0.48128187  0.69584727     0.07800
C860        C  0.54578900  0.47100255  0.73130085    -0.02300
Br861      Br  0.49206989  0.48057470  0.74322705    -0.00900
Br862      Br  0.54881766  0.44630855  0.81076452    -0.00900
Br863      Br  0.63026269  0.47741316  0.64125450    -0.00900
Br864      Br  0.67719287  0.43878144  0.71106939    -0.00900
C865        C  0.20886405  0.67467646  0.51992421    -0.02000
C866        C  0.21614509  0.64097051  0.53893988     0.07700
C867        C  0.18641989  0.63057342  0.56473376    -0.02100
C868        C  0.15991304  0.65695649  0.57945885    -0.02100
C869        C  0.16454689  0.69418719  0.57006777     0.07800
C870        C  0.18860713  0.70254649  0.53896909    -0.02300
Br871      Br  0.18555738  0.75049919  0.51683964    -0.00900
Br872      Br  0.19938431  0.67541668  0.46552303    -0.00900
Br873      Br  0.11554246  0.64160844  0.60843878    -0.00900
Br874      Br  0.17825359  0.57960646  0.57437634    -0.00900
C875        C  0.34333275  0.68497568  0.73856909    -0.02000
C876        C  0.32881498  0.70751937  0.70926306     0.07700
C877        C  0.34699965  0.70585278  0.67295371    -0.02100
C878        C  0.36933553  0.67519501  0.66270436    -0.02100
C879        C  0.37732617  0.64812642  0.69039510     0.07800
C880        C  0.37009691  0.65747693  0.72946901    -0.02300
Br881      Br  0.39912403  0.63644457  0.77145287    -0.00900
Br882      Br  0.32611364  0.68945128  0.79105575    -0.00900
Br883      Br  0.38795880  0.67176837  0.61096617    -0.00900
Br884      Br  0.34202527  0.74611732  0.63777973    -0.00900
C885        C  0.20779983  0.58580057  0.66430546    -0.02000
C886        C  0.22193490  0.61939670  0.65141744     0.07700
C887        C  0.25774690  0.62084250  0.63153955    -0.02100
C888        C  0.28146548  0.59007436  0.63108391    -0.02100
C889        C  0.27131923  0.55962706  0.65253602     0.07800
C890        C  0.23351448  0.55698439  0.66847457    -0.02300
Br891      Br  0.21927828  0.52074674  0.70625088    -0.00900
Br892      Br  0.15409767  0.57962091  0.67920593    -0.00900
Br893      Br  0.33236127  0.59268979  0.61039514    -0.00900
Br894      Br  0.27804327  0.66493392  0.60922353    -0.00900
C895        C  0.25511552  0.36847199  0.62860324    -0.02000
C896        C  0.21430225  0.36043879  0.62865003     0.07700
C897        C  0.19259280  0.37539833  0.59824238    -0.02100
C898        C  0.21213398  0.39282986  0.56712317    -0.02100
C899        C  0.25348665  0.39500303  0.56570715     0.07800
C900        C  0.27201112  0.39120984  0.60080025    -0.02300
Br901      Br  0.32605679  0.40460102  0.60383383    -0.00900
Br902      Br  0.29260505  0.34194091  0.65713308    -0.00900
Br903      Br  0.18245294  0.41113707  0.52498666    -0.00900
Br904      Br  0.13771817  0.36629527  0.59552638    -0.00900
C905        C  0.28129505  0.44181800  0.68645141    -0.02000
C906        C  0.31890974  0.45319270  0.69760203     0.07700
C907        C  0.33856142  0.43511609  0.72756931    -0.02100
C908        C  0.32071880  0.40604200  0.74629856    -0.02100
C909        C  0.28405726  0.39483328  0.73427160     0.07800
C910        C  0.26276721  0.41526347  0.70786715    -0.02300
Br911      Br  0.20683846  0.41142877  0.70612386    -0.00900
Br912      Br  0.25257017  0.46278396  0.64390592    -0.00900
Br913      Br  0.34272991  0.38642445  0.79255036    -0.00900
Br914      Br  0.38854697  0.45236835  0.74496102    -0.00900
C915        C  0.38363806  0.31834632  0.68709177    -0.02000
C916        C  0.38496695  0.30972835  0.64714066     0.07700
C917        C  0.36782628  0.27563461  0.63772225    -0.02100
C918        C  0.35533190  0.25052968  0.66654196    -0.02100
C919        C  0.35232791  0.26025733  0.70586971     0.07800
C920        C  0.36978923  0.29347447  0.71579400    -0.02300
Br921      Br  0.37849511  0.30284748  0.76915655    -0.00900
Br922      Br  0.39132925  0.36696610  0.70249618    -0.00900
Br923      Br  0.34162888  0.20176505  0.65161460    -0.00900
Br924      Br  0.35230393  0.26581624  0.58566011    -0.00900
C925        C  0.17891699  0.12525284  0.91550576    -0.02000
C926        C  0.18244179  0.16344590  0.91509306     0.07700
C927        C  0.15863662  0.18292145  0.94086458    -0.02100
C928        C  0.12583473  0.16679204  0.95798783    -0.02100
C929        C  0.12292439  0.12850432  0.96064342     0.07800
C930        C  0.15130579  0.10782252  0.93991570    -0.02300
Br931      Br  0.15233388  0.05544194  0.94308322    -0.00900
Br932      Br  0.21279796  0.09699466  0.88343477    -0.00900
Br933      Br  0.08328632  0.19868044  0.97076269    -0.00900
Br934      Br  0.16996359  0.23323464  0.95051714    -0.00900
C935        C  0.59526553  0.64578331  0.44842835    -0.02000
C936        C  0.57587195  0.67276520  0.46986415     0.07700
C937        C  0.58683581  0.70963217  0.46318240    -0.02100
C938        C  0.60601563  0.71919093  0.42930167    -0.02100
C939        C  0.62039636  0.69201546  0.40495207     0.07800
C940        C  0.61913935  0.65578541  0.41726720    -0.02300
Br941      Br  0.65433492  0.62171875  0.39490532    -0.00900
Br942      Br  0.59054921  0.59562313  0.46154699    -0.00900
Br943      Br  0.61130606  0.76993496  0.41602274    -0.00900
Br944      Br  0.57613214  0.74818290  0.49930389    -0.00900
C945        C  0.52299510  0.70534274  0.35049473    -0.02000
C946        C  0.52697369  0.74418994  0.34849518     0.07700
C947        C  0.50583637  0.76415381  0.37604004    -0.02100
C948        C  0.48087043  0.74638356  0.40311390    -0.02100
C949        C  0.47655213  0.70732611  0.40375932     0.07800
C950        C  0.50114624  0.68789128  0.37944407    -0.02300
Br951      Br  0.50907641  0.63683518  0.38986295    -0.00900
Br952      Br  0.54367637  0.67295069  0.31278836    -0.00900
Br953      Br  0.45705052  0.77783308  0.44033488    -0.00900
Br954      Br  0.50888559  0.81654822  0.37503601    -0.00900
C955        C  0.65960591  0.58536291  0.30487614    -0.02000
C956        C  0.63652636  0.60616170  0.28013959     0.07700
C957        C  0.59584968  0.59872573  0.28044749    -0.02100
C958        C  0.57799134  0.58117863  0.31204623    -0.02100
C959        C  0.60077279  0.56253036  0.33939720     0.07800
C960        C  0.64203234  0.56028593  0.33044832    -0.02300
Br961      Br  0.67620217  0.52058948  0.34504957    -0.00900
Br962      Br  0.71546580  0.59025640  0.30390021    -0.00900
Br963      Br  0.52188990  0.58016030  0.31469993    -0.00900
Br964      Br  0.56456308  0.60823798  0.23552758    -0.00900
C965        C  0.66704682  0.37506966  0.41258409    -0.02000
C966        C  0.67761190  0.33791727  0.41182845     0.07700
C967        C  0.66274962  0.31555453  0.44095488    -0.02100
C968        C  0.63343872  0.32807873  0.46616297    -0.02100
C969        C  0.61678632  0.36369395  0.46165972     0.07800
C970        C  0.63863411  0.38804509  0.43893132    -0.02300
Br971      Br  0.63458653  0.43889459  0.44922483    -0.00900
Br972      Br  0.68854514  0.40733976  0.37487240    -0.00900
Br973      Br  0.62264551  0.29669428  0.50939291    -0.00900
Br974      Br  0.67921596  0.26533375  0.44233029    -0.00900
C975        C  0.57238632  0.39559724  0.34487073    -0.02000
C976        C  0.58855832  0.39828726  0.30751264     0.07700
C977        C  0.58134278  0.43016184  0.28626389    -0.02100
C978        C  0.56596643  0.46110974  0.30471691    -0.02100
C979        C  0.55592800  0.45989030  0.34397369     0.07800
C980        C  0.55447692  0.42589215  0.36160858    -0.02300
Br981      Br  0.53071248  0.42271685  0.41086620    -0.00900
Br982      Br  0.57691089  0.35248920  0.37604384    -0.00900
Br983      Br  0.55696724  0.50368355  0.27498132    -0.00900
Br984      Br  0.59067554  0.43116465  0.23169916    -0.00900
C985        C  0.50507481  0.31014765  0.32517467    -0.02000
C986        C  0.51789375  0.30999854  0.28608537     0.07700
C987        C  0.50622360  0.34021887  0.26375718    -0.02100
C988        C  0.48311448  0.36874613  0.27965737    -0.02100
C989        C  0.47717831  0.37230019  0.32046121     0.07800
C990        C  0.48826935  0.34168459  0.34260608    -0.02300
Br991      Br  0.47841903  0.34152771  0.39729009    -0.00900
Br992      Br  0.50749186  0.26622657  0.35539560    -0.00900
Br993      Br  0.45534388  0.39800886  0.24246792    -0.00900
Br994      Br  0.52243797  0.34416237  0.21092859    -0.00900
C995        C  0.27725768  0.71507036  0.43642391    -0.02000
C996        C  0.27562039  0.70277382  0.39807153     0.07700
C997        C  0.29511917  0.66985849  0.38856608    -0.02100
C998        C  0.30852303  0.64728122  0.41772112    -0.02100
C999        C  0.30033149  0.65526219  0.45580599     0.07800
C1000       C  0.29096807  0.69136781  0.46533964    -0.02300
Br1001     Br  0.29764675  0.70788994  0.51718233    -0.00900
Br1002     Br  0.25981929  0.76312287  0.44973090    -0.00900
Br1003     Br  0.33291620  0.60207025  0.40618152    -0.00900
Br1004     Br  0.30192544  0.65199973  0.33684128    -0.00900
C1005       C  0.19611868  0.57968925  0.37858472    -0.02000
C1006       C  0.23446631  0.56332291  0.37623477     0.07700
C1007       C  0.25337412  0.56696263  0.33985902    -0.02100
C1008       C  0.23590489  0.58657949  0.30936284    -0.02100
C1009       C  0.20262041  0.60810750  0.31525729     0.07800
C1010       C  0.18272219  0.60419441  0.35006396    -0.02300
Br1011     Br  0.13756198  0.63423666  0.35984803    -0.00900
Br1012     Br  0.15633648  0.56736144  0.41557558    -0.00900
Br1013     Br  0.25801206  0.58496464  0.25848464    -0.00900
Br1014     Br  0.30386916  0.54655671  0.32914786    -0.00900
C1015       C  0.34714121  0.76433279  0.36135297    -0.02000
C1016       C  0.34906219  0.75229729  0.32315807     0.07700
C1017       C  0.37224203  0.72132805  0.31552423    -0.02100
C1018       C  0.38548061  0.69821343  0.34543006    -0.02100
C1019       C  0.37858235  0.70679621  0.38464043     0.07800
C1020       C  0.36222234  0.74267748  0.39175793    -0.02300
Br1021     Br  0.36019471  0.76683206  0.44123020    -0.00900
Br1022     Br  0.32430803  0.81148953  0.37238542    -0.00900
Br1023     Br  0.41148834  0.65378790  0.33069258    -0.00900
Br1024     Br  0.38765366  0.71136985  0.26330523    -0.00900
C1025       C  0.18417563  0.91633671  0.16188124    -0.02000
C1026       C  0.17088518  0.91849789  0.19959426     0.07700
C1027       C  0.13667250  0.93865136  0.20671761    -0.02100
C1028       C  0.11311198  0.95172940  0.17622745    -0.02100
C1029       C  0.12423913  0.94650232  0.13716913     0.07800
C1030       C  0.15978035  0.92644364  0.13131062    -0.02300
Br1031     Br  0.17531372  0.90484598  0.08397953    -0.00900
Br1032     Br  0.23655875  0.89935058  0.15137711    -0.00900
Br1033     Br  0.06269264  0.97054774  0.18970058    -0.00900
Br1034     Br  0.12356019  0.95024939  0.25910119    -0.00900
C1035       C  0.23271712  0.31567567  0.41922023    -0.02000
C1036       C  0.24761879  0.28138905  0.40785318     0.07700
C1037       C  0.28592381  0.27250073  0.41970570    -0.02100
C1038       C  0.30874064  0.29725957  0.44107813    -0.02100
C1039       C  0.29305131  0.33048981  0.45463673     0.07800
C1040       C  0.25549663  0.34011124  0.44132963    -0.02300
Br1041     Br  0.23649312  0.38837451  0.44946865    -0.00900
Br1042     Br  0.18083724  0.33001465  0.40518002    -0.00900
Br1043     Br  0.36118428  0.28455629  0.45533008    -0.00900
Br1044     Br  0.30628900  0.22445916  0.41015374    -0.00900
C1045       C  0.32090301  0.38908926  0.25684871    -0.02000
C1046       C  0.33035321  0.35217362  0.25020402     0.07700
C1047       C  0.36336856  0.33861991  0.26974520    -0.02100
C1048       C  0.37987121  0.35752301  0.30098049    -0.02100
C1049       C  0.37279935  0.39514943  0.30675894     0.07800
C1050       C  0.34293396  0.41062740  0.28329291    -0.02300
Br1051     Br  0.32852643  0.46065027  0.29023602    -0.00900
Br1052     Br  0.27796033  0.41046438  0.22971146    -0.00900
Br1053     Br  0.39948107  0.32718559  0.34116446    -0.00900
Br1054     Br  0.38727583  0.29353979  0.25373169    -0.00900
C1055       C  0.28513344  0.42698144  0.37810620    -0.02000
C1056       C  0.25942089  0.45638356  0.37837052     0.07700
C1057       C  0.22870169  0.45806011  0.35173213    -0.02100
C1058       C  0.22457359  0.43079902  0.32475894    -0.02100
C1059       C  0.24472474  0.39790110  0.32985528     0.07800
C1060       C  0.27660211  0.39667794  0.35553268    -0.02300
Br1061     Br  0.30741116  0.35386361  0.36333148    -0.00900
Br1062     Br  0.32864492  0.42611809  0.41270045    -0.00900
Br1063     Br  0.19161444  0.44008814  0.28089986    -0.00900
Br1064     Br  0.18741887  0.49313909  0.35430471    -0.00900
C1065       C  0.15874635  0.20691071  0.07228576    -0.02000
C1066       C  0.13460933  0.23343720  0.08863517     0.07700
C1067       C  0.09435811  0.23169138  0.08019128    -0.02100
C1068       C  0.07762461  0.19987578  0.06434022    -0.02100
C1069       C  0.10104042  0.16972693  0.05442630     0.07800
C1070       C  0.14266822  0.17519393  0.05581891    -0.02300
Br1071     Br  0.18103549  0.14158688  0.03574968    -0.00900
Br1072     Br  0.21448304  0.21429521  0.07146699    -0.00900
Br1073     Br  0.02210825  0.19707594  0.05787948    -0.00900
Br1074     Br  0.06240469  0.27412074  0.08807131    -0.00900
C1075       C  0.14225754  0.05130218  0.15258005    -0.02000
C1076       C  0.10589067  0.05074235  0.13344726     0.07700
C1077       C  0.08118608  0.08066629  0.13673954    -0.02100
C1078       C  0.09485510  0.11311927  0.15255955    -0.02100
C1079       C  0.13163287  0.11426017  0.17069112     0.07800
C1080       C  0.15285836  0.08154852  0.17428945    -0.02300
Br1081     Br  0.19557245  0.07606436  0.20991041    -0.00900
Br1082     Br  0.18133784  0.01406221  0.14667605    -0.00900
Br1083     Br  0.06367330  0.15561368  0.14446518    -0.00900
Br1084     Br  0.03107224  0.07936374  0.11327063    -0.00900
C1085       C  0.87726100  0.17520838  0.17177850    -0.02000
C1086       C  0.88881554  0.14534249  0.19463161     0.07700
C1087       C  0.88343032  0.14985772  0.23542785    -0.02100
C1088       C  0.85961850  0.17826543  0.25070993    -0.02100
C1089       C  0.84632343  0.20707440  0.22719717     0.07800
C1090       C  0.85989719  0.20665651  0.18842179    -0.02300
Br1091     Br  0.85933924  0.25050428  0.15801333    -0.00900
Br1092     Br  0.88581341  0.17417530  0.11690980    -0.00900
Br1093     Br  0.84665114  0.17748561  0.30455893    -0.00900
Br1094     Br  0.91316598  0.12249625  0.27277177    -0.00900
C1095       C  0.04840946  0.13144208  0.25083738    -0.02000
C1096       C  0.04152525  0.16936394  0.25386879     0.07700
C1097       C  0.00935289  0.18303505  0.23298703    -0.02100
C1098       C  0.99014437  0.16192946  0.20482012    -0.02100
C1099       C  0.99483553  0.12364446  0.20269068     0.07800
C1100       C  0.02483963  0.10890021  0.22664452    -0.02300
Br1101     Br  0.03810578  0.05820890  0.22289308    -0.00900
Br1102     Br  0.09038682  0.10984198  0.27945811    -0.00900
Br1103     Br  0.96890220  0.18879953  0.16286168    -0.00900
Br1104     Br  0.98943464  0.23110282  0.24372052    -0.00900
C1105       C  0.76727106  0.94343341  0.19341571    -0.02000
C1106       C  0.75050589  0.95093038  0.15740477     0.07700
C1107       C  0.71219160  0.93727815  0.15111722    -0.02100
C1108       C  0.69019594  0.92083639  0.18110363    -0.02100
C1109       C  0.70647217  0.91538196  0.21805426     0.07800
C1110       C  0.74494925  0.92842519  0.22377587    -0.02300
Br1111     Br  0.76705581  0.92888076  0.27456227    -0.00900
Br1112     Br  0.82278337  0.94657868  0.19921096    -0.00900
Br1113     Br  0.63723219  0.90733350  0.17086933    -0.00900
Br1114     Br  0.68933468  0.94191761  0.10060269    -0.00900
C1115       C  0.80953680  0.06300363  0.21288127    -0.02000
C1116       C  0.81623675  0.05954588  0.17300761     0.07700
C1117       C  0.81714664  0.09206618  0.15231122    -0.02100
C1118       C  0.79738303  0.12320630  0.16589046    -0.02100
C1119       C  0.78193150  0.12380062  0.20377368     0.07800
C1120       C  0.79177174  0.09448468  0.22818349    -0.02300
Br1121     Br  0.78196269  0.09682261  0.28260792    -0.00900
Br1122     Br  0.82257749  0.02377316  0.24650265    -0.00900
Br1123     Br  0.78948034  0.16270573  0.13043812    -0.00900
Br1124     Br  0.83822639  0.08999156  0.10187894    -0.00900
C1125       C  0.99275758  0.83606175  0.17210651    -0.02000
C1126       C  0.98797088  0.81997700  0.13550526     0.07700
C1127       C  0.99923750  0.78224060  0.13257016    -0.02100
C1128       C  0.02192387  0.76511684  0.16144569    -0.02100
C1129       C  0.02807594  0.78210672  0.19718996     0.07800
C1130       C  0.00887069  0.81596304  0.20313957    -0.02300
Br1131     Br  0.00027468  0.83369695  0.25442818    -0.00900
Br1132     Br  0.98285969  0.88745875  0.17969803    -0.00900
Br1133     Br  0.04428722  0.71782096  0.15068663    -0.00900
Br1134     Br  0.98128705  0.74977869  0.09272461    -0.00900
C1135       C  0.86978629  0.77462316  0.10772344    -0.02000
C1136       C  0.88670559  0.80936606  0.11834477     0.07700
C1137       C  0.88049150  0.81922847  0.15741951    -0.02100
C1138       C  0.86006163  0.79629414  0.18297033    -0.02100
C1139       C  0.83536296  0.76877652  0.16934667     0.07800
C1140       C  0.84160256  0.75713259  0.13158503    -0.02300
Br1141     Br  0.81160660  0.71663088  0.11291334    -0.00900
Br1142     Br  0.88421133  0.74653701  0.06341333    -0.00900
Br1143     Br  0.86560211  0.80264362  0.23755037    -0.00900
Br1144     Br  0.89288647  0.86621161  0.17751225    -0.00900
C1145       C  0.10174420  0.97345602  0.80114650    -0.02000
C1146       C  0.08064904  0.96929841  0.83590131     0.07700
C1147       C  0.06643660  0.93511580  0.84581831    -0.02100
C1148       C  0.07784296  0.90429370  0.82538061    -0.02100
C1149       C  0.10050455  0.90784478  0.79170497     0.07800
C1150       C  0.11045699  0.94295644  0.77861383    -0.02300
Br1151     Br  0.13341424  0.95056584  0.72856218    -0.00900
Br1152     Br  0.11953743  0.02027085  0.78299791    -0.00900
Br1153     Br  0.06441453  0.85771824  0.84692341    -0.00900
Br1154     Br  0.03260996  0.93004156  0.88862447    -0.00900
C1155       C  0.04245804  0.11540216  0.85838554    -0.02000
C1156       C  0.03844300  0.08263178  0.83976691     0.07700
C1157       C  0.04244278  0.08115458  0.79987149    -0.02100
C1158       C  0.06525124  0.10725444  0.78142284    -0.02100
C1159       C  0.07886238  0.13687571  0.80299406     0.07800
C1160       C  0.06503414  0.14198169  0.84117464    -0.02300
Br1161     Br  0.07985890  0.18150043  0.87349073    -0.00900
Br1162     Br  0.02833877  0.11737076  0.91182415    -0.00900
Br1163     Br  0.07706474  0.10197241  0.72767612    -0.00900
Br1164     Br  0.01993520  0.04139068  0.77239991    -0.00900
C1165       C  0.84341796  0.86916711  0.76473678    -0.02000
C1166       C  0.81482022  0.85951645  0.79192107     0.07700
C1167       C  0.81726461  0.87317767  0.82987818    -0.02100
C1168       C  0.84818875  0.89546810  0.84039808    -0.02100
C1169       C  0.87532137  0.90657948  0.81280102     0.07800
C1170       C  0.87228275  0.89410242  0.77454287    -0.02300
Br1171     Br  0.90627659  0.91099862  0.73399234    -0.00900
Br1172     Br  0.84389646  0.84952509  0.71324187    -0.00900
Br1173     Br  0.84991829  0.91436007  0.89185767    -0.00900
Br1174     Br  0.77900350  0.86240286  0.86889530    -0.00900
C1175       C  0.97837937  0.85572333  0.80478739    -0.02000
C1176       C  0.98479539  0.89270534  0.79451767     0.07700
C1177       C  0.00397134  0.89820508  0.75807959    -0.02100
C1178       C  0.01426430  0.86846682  0.73376371    -0.02100
C1179       C  0.00763906  0.83213689  0.74504370     0.07800
C1180       C  0.98718009  0.82658790  0.77961825    -0.02300
Br1181     Br  0.96913499  0.77827600  0.79210969    -0.00900
Br1182     Br  0.96494226  0.84261637  0.85634516    -0.00900
Br1183     Br  0.03769851  0.87818942  0.68429234    -0.00900
Br1184     Br  0.02170638  0.94489027  0.74008609    -0.00900
C1185       C  0.85514882  0.24288430  0.83776567    -0.02000
C1186       C  0.84177953  0.24380158  0.79926808     0.07700
C1187       C  0.85376830  0.21543008  0.77557998    -0.02100
C1188       C  0.87227510  0.18382592  0.79099686    -0.02100
C1189       C  0.87982273  0.17979378  0.83190714     0.07800
C1190       C  0.87153585  0.21098158  0.85434681    -0.02300
Br1191     Br  0.87759511  0.20945044  0.90927894    -0.00900
Br1192     Br  0.84741559  0.28550738  0.86890380    -0.00900
Br1193     Br  0.88473752  0.14843158  0.75241653    -0.00900
Br1194     Br  0.84351567  0.22078218  0.72129747    -0.00900
C1195       C  0.98744130  0.20633034  0.85518400    -0.02000
C1196       C  0.97780983  0.17493011  0.83349182     0.07700
C1197       C  0.98885619  0.17651493  0.79318081    -0.02100
C1198       C  0.01048421  0.20628432  0.77758896    -0.02100
C1199       C  0.02258064  0.23549430  0.80061208     0.07800
C1200       C  0.00747758  0.23644897  0.83855576    -0.02300
Br1201     Br  0.01367260  0.28026220  0.86817539    -0.00900
Br1202     Br  0.97897932  0.20689902  0.90982307    -0.00900
Br1203     Br  0.02449244  0.20678635  0.72376771    -0.00900
Br1204     Br  0.97867741  0.13882029  0.75596926    -0.00900
C1205       C  0.69992944  0.93805641  0.79331901    -0.02000
C1206       C  0.68226954  0.91353795  0.81904274     0.07700
C1207       C  0.69011996  0.91879754  0.85891534    -0.02100
C1208       C  0.72075317  0.94179527  0.87141326    -0.02100
C1209       C  0.74274295  0.96193409  0.84508985     0.07800
C1210       C  0.72843644  0.96298701  0.80635375    -0.02300
Br1211     Br  0.74522857  0.99913908  0.76984165    -0.00900
Br1212     Br  0.68696572  0.93702982  0.73937671    -0.00900
Br1213     Br  0.73412907  0.94506454  0.92471093    -0.00900
Br1214     Br  0.65896019  0.89484546  0.89728875    -0.00900
C1215       C  0.71858146  0.10315133  0.83704792    -0.02000
C1216       C  0.73465107  0.12771536  0.81094548     0.07700
C1217       C  0.76745943  0.11757117  0.79028635    -0.02100
C1218       C  0.78802014  0.08557317  0.79955173    -0.02100
C1219       C  0.77652595  0.06328504  0.83150026     0.07800
C1220       C  0.73992823  0.07222835  0.84903276    -0.02300
Br1221     Br  0.71585517  0.04317535  0.88852319    -0.00900
Br1222     Br  0.66516370  0.11001849  0.85214898    -0.00900
Br1223     Br  0.82923489  0.07413387  0.76443416    -0.00900
Br1224     Br  0.78069528  0.14637464  0.74575898    -0.00900
C1225       C  0.07656414  0.87609613  0.07119235    -0.02000
C1226       C  0.09773261  0.87320363  0.03715218     0.07700
C1227       C  0.12640756  0.84565135  0.03445722    -0.02100
C1228       C  0.13145510  0.82087311  0.06461647    -0.02100
C1229       C  0.11779298  0.82997697  0.10165945     0.07800
C1230       C  0.08935643  0.85776405  0.10421281    -0.02300
Br1231     Br  0.07180744  0.87611282  0.15215009    -0.00900
Br1232     Br  0.03284434  0.90815601  0.07371420    -0.00900
Br1233     Br  0.15712136  0.77534886  0.05344735    -0.00900
Br1234     Br  0.16686540  0.84655678  0.99643098    -0.00900
C1235       C  0.10962466  0.84320380  0.92681268    -0.02000
C1236       C  0.11788151  0.88088539  0.92184996     0.07700
C1237       C  0.14838359  0.89004999  0.89549932    -0.02100
C1238       C  0.16974109  0.86286936  0.87623620    -0.02100
C1239       C  0.16131049  0.82607247  0.88205984     0.07800
C1240       C  0.13371108  0.81660656  0.90990958    -0.02300
Br1241     Br  0.12874847  0.76606250  0.92359060    -0.00900
Br1242     Br  0.06363752  0.82590774  0.95268316    -0.00900
Br1243     Br  0.20847933  0.87605966  0.83848595    -0.00900
Br1244     Br  0.15933024  0.93925856  0.88012584    -0.00900
C1245       C  0.72247390  0.13216521  0.07528791    -0.02000
C1246       C  0.74056109  0.15512414  0.04833253     0.07700
C1247       C  0.72051388  0.18840559  0.03953321    -0.02100
C1248       C  0.69034103  0.20108954  0.06359787    -0.02100
C1249       C  0.68014126  0.18195795  0.09673738     0.07800
C1250       C  0.69377868  0.14594404  0.10055828    -0.02300
Br1251     Br  0.67689836  0.11747902  0.14365696    -0.00900
Br1252     Br  0.73790170  0.08237237  0.07804003    -0.00900
Br1253     Br  0.66555576  0.24741688  0.05479775    -0.00900
Br1254     Br  0.73065089  0.21725094  0.99438481    -0.00900
C1255       C  0.76080873  0.14394971  0.90923100    -0.02000
C1256       C  0.75183713  0.12922526  0.94439529     0.07700
C1257       C  0.71182563  0.12920545  0.95449738    -0.02100
C1258       C  0.68491560  0.15218349  0.93452987    -0.02100
C1259       C  0.69892217  0.17728876  0.90708705     0.07800
C1260       C  0.73927064  0.17407782  0.89787566    -0.02300
Br1261     Br  0.77200508  0.21457848  0.88896702    -0.00900
Br1262     Br  0.81059525  0.13283594  0.88708701    -0.00900
Br1263     Br  0.63105000  0.15290120  0.94840977    -0.00900
Br1264     Br  0.69317184  0.09411400  0.99034816    -0.00900
C1265       C  0.73924681  0.87187592  0.04494014    -0.02000
C1266       C  0.77838895  0.87989891  0.05204714     0.07700
C1267       C  0.78988300  0.88457557  0.08991458    -0.02100
C1268       C  0.76852704  0.86835461  0.11922891    -0.02100
C1269       C  0.73144034  0.85324688  0.11173311     0.07800
C1270       C  0.71570336  0.85770696  0.07454827    -0.02300
Br1271     Br  0.66252594  0.84544532  0.06379093    -0.00900
Br1272     Br  0.71874453  0.88017604  0.99470406    -0.00900
Br1273     Br  0.79462921  0.86243902  0.16713374    -0.00900
Br1274     Br  0.84018246  0.90447898  0.09959922    -0.00900
C1275       C  0.84126185  0.80359321  0.91582856    -0.02000
C1276       C  0.81622055  0.81263971  0.94640058     0.07700
C1277       C  0.78348334  0.78944715  0.95198463    -0.02100
C1278       C  0.77430268  0.76196674  0.92513994    -0.02100
C1279       C  0.79517780  0.75868604  0.89077263     0.07800
C1280       C  0.82972060  0.77886965  0.88695993    -0.02300
Br1281     Br  0.85931245  0.77480049  0.84035261    -0.00900
Br1282     Br  0.89306404  0.82199922  0.91615177    -0.00900
Br1283     Br  0.73088659  0.72987543  0.93350748    -0.00900
Br1284     Br  0.75211155  0.79182669  0.99750895    -0.00900
loop_ 
_geom_bond_atom_site_label_1 
_geom_bond_atom_site_label_2 
_geom_bond_distance 
_geom_bond_site_symmetry_2 
_ccdc_geom_bond_type 
N1            C5   1.392       .  A
N1            C2   1.357   1_556  A
N1          C708   1.475       .  S
C2            C3   1.378       .  A
C2         C1266   1.479       .  S
C3            C4   1.352       .  A
C3            H6   1.079       .  S
C4            C5   1.373   1_554  A
C4            H7   1.078       .  S
C5         C1276   1.517       .  S
N8           C12   1.347   1_554  A
N8            C9   1.371       .  A
N8          C740   1.481       .  S
C9           C10   1.381       .  A
C9         C1246   1.538       .  S
C10          C11   1.372   1_554  A
C10          H13   1.083       .  S
C11          C12   1.397       .  A
C11          H14   1.078       .  S
C12        C1256   1.512       .  S
N15          C19   1.381       .  A
N15          C16   1.357   1_556  A
N15         C709   1.470       .  S
C16          C17   1.373       .  A
C16        C1226   1.487       .  S
C17          C18   1.345   1_554  A
C17          H20   1.061       .  S
C18          C19   1.389       .  A
C18          H21   1.074       .  S
C19        C1236   1.529       .  S
N22          C26   1.383   1_545  A
N22          C23   1.369       .  A
N22         C744   1.499       .  S
C23          C24   1.399       .  A
C23        C1219   1.538       .  S
C24          C25   1.358   1_545  A
C24          H27   1.064       .  S
C25          C26   1.373       .  A
C25          H28   1.082       .  S
C26        C1209   1.544       .  S
N29          C33   1.392       .  A
N29          C30   1.392       .  A
N29         C745   1.541       .  S
C30          C31   1.382       .  A
C30        C1189   1.570       .  S
C31          C32   1.367       .  A
C31          H34   1.071       .  S
C32          C33   1.385       .  A
C32          H35   1.075       .  S
C33        C1196   1.579       .  S
N36          C40   1.383       .  A
N36          C37   1.358       .  A
N36         C710   1.480       .  S
C37          C38   1.375       .  A
C37        C1169   1.469       .  S
C38          C39   1.364       .  A
C38          H41   1.082       .  S
C39          C40   1.399       .  A
C39          H42   1.066       .  S
C40        C1176   1.566       .  S
N43          C47   1.358   1_545  A
N43          C44   1.332       .  A
N43         C741   1.438       .  S
C44          C45   1.376       .  A
C44        C1156   1.445       .  S
C45          C46   1.356       .  A
C45          H48   1.083       .  S
C46          C47   1.382   1_545  A
C46          H49   1.080       .  S
C47        C1146   1.483       .  S
N50          C54   1.378       .  A
N50          C51   1.386       .  A
N50         C711   1.517       .  S
C51          C52   1.395       .  A
C51        C1136   1.572       .  S
C52          C53   1.377       .  A
C52          H55   1.072       .  S
C53          C54   1.381       .  A
C53          H56   1.082       .  S
C54        C1126   1.551       .  S
N57          C61   1.399       .  A
N57          C58   1.381   1_565  A
N57         C743   1.498       .  S
C58          C59   1.366       .  A
C58        C1116   1.488       .  S
C59          C60   1.339       .  A
C59          H62   1.082       .  S
C60          C61   1.391   1_545  A
C60          H63   1.081       .  S
C61        C1106   1.538       .  S
N64          C68   1.391       .  A
N64          C65   1.383       .  A
N64         C746   1.524       .  S
C65          C66   1.382       .  A
C65        C1086   1.558       .  S
C66          C67   1.371       .  A
C66          H69   1.078       .  S
C67          C68   1.393       .  A
C67          H70   1.080       .  S
C68        C1099   1.563       .  S
Zr71         O72   2.439       .  S
Zr71         O73   2.385       .  S
Zr71         O74   2.379       .  S
Zr71         O77   2.386       .  S
Zr71         O79   2.378       .  S
Zr71         O80   2.390       .  S
Zr71         O81   2.395       .  S
Zr71         O82   2.385       .  S
O72         H128   0.987       .  S
O72         H136   0.990       .  S
O73          C93   1.271       .  A
O74          C95   1.265       .  A
O75         Zr85   2.543       .  S
O75          C94   1.300       .  A
O76         Zr84   2.561       .  S
O76          C95   1.303       .  A
O77          C94   1.268       .  A
O78         Zr86   2.401       .  S
O78          C93   1.279       .  A
O79         Zr84   2.380       .  S
O79         Zr86   2.365       .  S
O80         Zr85   2.406       .  S
O80         Zr86   2.360       .  S
O80         H115   0.967       .  S
O81         Zr84   2.409       .  S
O81        Zr101   2.375       .  S
O81         H118   0.965       .  S
O82         Zr85   2.424       .  S
O82        Zr101   2.394       .  S
Zr83        O108   2.441       .  S
Zr83        O102   2.408       .  S
Zr83        O110   2.393       .  S
Zr83         O98   2.397       .  S
Zr83         O89   2.392       .  S
Zr83         O90   2.407       .  S
Zr83         O91   2.389       .  S
Zr83         O92   2.389       .  S
Zr84        O103   2.436       .  S
Zr84         O96   2.435       .  S
Zr84         O97   2.508       .  S
Zr84         O90   2.417       .  S
Zr84         O91   2.415       .  S
Zr85         O87   2.434       .  S
Zr85        O109   2.433       .  S
Zr85        O111   2.554       .  S
Zr85         O89   2.413       .  S
Zr85         O92   2.409       .  S
Zr86        O112   2.434       .  S
Zr86        O113   2.437       .  S
Zr86         O88   2.436       .  S
Zr86         O89   2.391       .  S
Zr86         O90   2.365       .  S
O87         H124   0.990       .  S
O88         H119   0.989       .  S
O88         H133   0.990       .  S
O90         H116   0.965       .  S
O91        Zr101   2.370       .  S
O92        Zr101   2.371       .  S
O92         H117   0.969       .  S
C93        C1059   1.471       .  S
C94        C1036   1.520       .  S
C95        C1046   1.533       .  S
O96         H132   0.990       .  S
O97          C99   1.298       .  A
O98          C99   1.267       .  A
C99        C1066   1.512       .  S
O100       Zr101   2.437       .  S
O100        H129   0.990       .  S
Zr101       O104   2.436       .  S
Zr101       O105   2.435       .  S
Zr101       O106   2.409       .  S
O102        C107   1.275       .  A
O103        H120   0.990       .  S
O103        H135   0.990       .  S
O104        H121   0.990       .  S
O105        H125   0.990       .  S
O105        H134   0.990       .  S
O106        C107   1.278       .  A
C107       C1079   1.487       .  S
O108        H127   0.990       .  S
O108        H131   0.987       .  S
O109        H123   0.990       .  S
O109        H130   0.990       .  S
O110        C114   1.271       .  A
O111        C114   1.300       .  A
O112        H122   0.990       .  S
O113        H126   0.990       .  S
C114       C1096   1.541       .  S
N137        C141   1.388       .  A
N137        C138   1.363   1_565  A
N137        C742   1.488       .  S
C138        C139   1.369       .  A
C138       C1076   1.480       .  S
C139        C140   1.351   1_545  A
C139        H142   1.082       .  S
C140        C141   1.398       .  A
C140        H143   1.069       .  S
C141       C1029   1.552       .  S
Zr144       O145   2.441       .  S
Zr144       O146   2.385       .  S
Zr144       O147   2.388       .  S
Zr144       O150   2.391       .  S
Zr144       O152   2.375       .  S
Zr144       O153   2.385       .  S
Zr144       O154   2.391       .  S
Zr144       O155   2.382       .  S
O145        H201   0.989       .  S
O145        H209   0.990       .  S
O146        C166   1.269       .  A
O147        C168   1.268       .  A
O148       Zr158   2.527       .  S
O148        C167   1.304       .  A
O149       Zr157   2.511       .  S
O149        C168   1.296       .  A
O150        C167   1.277       .  A
O151       Zr159   2.459       .  S
O151        C166   1.287       .  A
O152       Zr157   2.381       .  S
O152       Zr159   2.366       .  S
O153       Zr158   2.398       .  S
O153       Zr159   2.350       .  S
O153        H188   0.959       .  S
O154       Zr157   2.410       .  S
O154       Zr174   2.387       .  S
O154        H191   0.966       .  S
O155       Zr158   2.416       .  S
O155       Zr174   2.397       .  S
Zr156       O181   2.437       .  S
Zr156       O175   2.439       .  S
Zr156       O183   2.387       .  S
Zr156       O171   2.403       .  S
Zr156       O162   2.403       .  S
Zr156       O163   2.408       .  S
Zr156       O164   2.382       .  S
Zr156       O165   2.386       .  S
Zr157       O176   2.435       .  S
Zr157       O169   2.434       .  S
Zr157       O170   2.479       .  S
Zr157       O163   2.411       .  S
Zr157       O164   2.408       .  S
Zr158       O160   2.436       .  S
Zr158       O182   2.435       .  S
Zr158       O184   2.528       .  S
Zr158       O162   2.413       .  S
Zr158       O165   2.405       .  S
Zr159       O185   2.440       .  S
Zr159       O186   2.435       .  S
Zr159       O161   2.434       .  S
Zr159       O162   2.407       .  S
Zr159       O163   2.392       .  S
O160        H197   0.990       .  S
O161        H192   0.988       .  S
O161        H206   0.990       .  S
O163        H189   0.962       .  S
O164       Zr174   2.382       .  S
O165       Zr174   2.370       .  S
O165        H190   0.966       .  S
C166        C996   1.485       .  S
C167       C1009   1.502       .  S
C168       C1016   1.518       .  S
O169        H205   0.990       .  S
O170        C172   1.290       .  A
O171        C172   1.267       .  A
C172       C1026   1.501       .  S
O173       Zr174   2.440       .  S
O173        H202   0.989       .  S
Zr174       O177   2.434       .  S
Zr174       O178   2.441       .  S
Zr174       O179   2.402       .  S
O175        C180   1.282       .  A
O176        H193   0.990       .  S
O176        H208   0.990       .  S
O177        H194   0.990       .  S
O178        H198   0.990       .  S
O178        H207   0.990       .  S
O179        C180   1.275       .  A
C180       C1229   1.504       .  S
O181        H200   0.988       .  S
O181        H204   0.991       .  S
O182        H196   0.990       .  S
O182        H203   0.990       .  S
O183        C187   1.268       .  A
O184        C187   1.299       .  A
O185        H195   0.990       .  S
O186        H199   0.990       .  S
C187       C1129   1.530       .  S
Zr210       O211   2.438       .  S
Zr210       O212   2.410       .  S
Zr210       O213   2.390       .  S
Zr210       O216   2.371       .  S
Zr210       O218   2.370       .  S
Zr210       O219   2.386       .  S
Zr210       O220   2.400       .  S
Zr210       O221   2.400       .  S
O211        H267   0.990       .  S
O211        H275   0.990       .  S
O212        C232   1.276       .  A
O213        C234   1.270       .  A
O214       Zr224   2.531       .  S
O214        C233   1.304       .  A
O215       Zr223   2.574       .  S
O215        C234   1.310       .  A
O216        C233   1.274       .  A
O217       Zr225   2.464       .  S
O217        C232   1.289       .  A
O218       Zr223   2.388       .  S
O218       Zr225   2.353       .  S
O219       Zr224   2.415       .  S
O219       Zr225   2.360       .  S
O219        H254   0.955       .  S
O220       Zr223   2.408       .  S
O220       Zr240   2.398       .  S
O220        H257   0.969       .  S
O221       Zr224   2.426       .  S
O221       Zr240   2.411       .  S
Zr222       O247   2.438       .  S
Zr222       O241   2.391       .  S
Zr222       O249   2.374       .  S
Zr222       O237   2.334       .  S
Zr222       O228   2.377       .  S
Zr222       O229   2.397       .  S
Zr222       O230   2.379       .  S
Zr222       O231   2.381       .  S
Zr223       O242   2.436       .  S
Zr223       O235   2.437       .  S
Zr223       O236   2.559       .  S
Zr223       O229   2.416       .  S
Zr223       O230   2.390       .  S
Zr224       O226   2.434       .  S
Zr224       O248   2.434       .  S
Zr224       O250   2.588       .  S
Zr224       O228   2.403       .  S
Zr224       O231   2.380       .  S
Zr225       O251   2.434       .  S
Zr225       O252   2.434       .  S
Zr225       O227   2.435       .  S
Zr225       O228   2.415       .  S
Zr225       O229   2.404       .  S
O226        H263   0.990       .  S
O227        H258   0.990       .  S
O227        H272   0.990       .  S
O229        H255   0.971       .  S
O230       Zr240   2.370       .  S
O231       Zr240   2.355       .  S
O231        H256   0.958       .  S
C232       C1119   1.509       .  S
C233       C1249   1.485       .  S
C234       C1089   1.548       .  S
O235        H271   0.990       .  S
O236        C238   1.309       .  A
O237        C238   1.264       .  A
C238        C966   1.493       .  S
O239       Zr240   2.439       .  S
O239        H268   0.990       .  S
Zr240       O243   2.434       .  S
Zr240       O244   2.437       .  S
Zr240       O245   2.468       .  S
O241        C246   1.272       .  A
O242        H259   0.990       .  S
O242        H274   0.990       .  S
O243        H260   0.990       .  S
O244        H264   0.990       .  S
O244        H273   0.990       .  S
O245        C246   1.291       .  A
C246        C976   1.492       .  S
O247        H266   0.989       .  S
O247        H270   0.989       .  S
O248        H262   0.990       .  S
O248        H269   0.990       .  S
O249        C253   1.265       .  A
O250        C253   1.310       .  A
O251        H261   0.990       .  S
O252        H265   0.990       .  S
C253        C986   1.550       .  S
Zr276       O277   2.458       .  S
Zr276       O278   2.480       .  S
Zr276       O279   2.342       .  S
Zr276       O282   2.386       .  S
Zr276       O284   2.394       .  S
Zr276       O285   2.381       .  S
Zr276       O286   2.403       .  S
Zr276       O287   2.387       .  S
O277        H333   0.990       .  S
O277        H341   0.989       .  S
O278        C298   1.291       .  A
O279        C300   1.255       .  A
O280       Zr290   2.596       .  S
O280        C299   1.310       .  A
O281       Zr289   2.566       .  S
O281        C300   1.308       .  A
O282        C299   1.259       .  A
O283       Zr291   2.407       .  S
O283        C298   1.279       .  A
O284       Zr289   2.393       .  S
O284       Zr291   2.372       .  S
O285       Zr290   2.380       .  S
O285       Zr291   2.370       .  S
O285        H320   0.962       .  S
O286       Zr289   2.397       .  S
O286       Zr306   2.383       .  S
O286        H323   0.962       .  S
O287       Zr290   2.414       .  S
O287       Zr306   2.426       .  S
Zr288       O313   2.436       .  S
Zr288       O307   2.410       .  S
Zr288       O315   2.376       .  S
Zr288       O303   2.388       .  S
Zr288       O295   2.384       .  S
Zr288       O296   2.386       .  S
Zr288       O297   2.380       .  S
Zr288       O294   2.302       .  S
Zr289       O308   2.436       .  S
Zr289       O301   2.435       .  S
Zr289       O302   2.550       .  S
Zr289       O295   2.404       .  S
Zr289       O296   2.405       .  S
Zr290       O292   2.445       .  S
Zr290       O314   2.436       .  S
Zr290       O316   2.560       .  S
Zr290       O297   2.414       .  S
Zr290       O294   2.345       .  S
Zr291       O317   2.434       .  S
Zr291       O318   2.436       .  S
Zr291       O293   2.448       .  S
Zr291       O295   2.361       .  S
Zr291       O294   2.320       .  S
O292        H329   0.990       .  S
O293        H324   0.990       .  S
O293        H338   0.990       .  S
O295        H321   0.966       .  S
O296       Zr306   2.374       .  S
O297       Zr306   2.346       .  S
O297        H322   0.949       .  S
C298        C939   1.478       .  S
C299        C946   1.549       .  S
C300        C956   1.520       .  S
O301        H337   0.990       .  S
O302        C304   1.308       .  A
O303        C304   1.276       .  A
C304       C1139   1.522       .  S
O305       Zr306   2.438       .  S
O305        H334   0.990       .  S
Zr306       O309   2.436       .  S
Zr306       O310   2.439       .  S
Zr306       O311   2.454       .  S
O307        C312   1.274       .  A
O308        H325   0.990       .  S
O308        H340   0.990       .  S
O309        H326   0.990       .  S
O310        H330   0.990       .  S
O310        H339   0.990       .  S
O311        C312   1.285       .  A
C312       C1269   1.494       .  S
O313        H332   0.987       .  S
O313        H336   0.989       .  S
O314        H328   0.990       .  S
O314        H335   0.990       .  S
O315        C319   1.264       .  A
O316        C319   1.300       .  A
O317        H327   0.990       .  S
O318        H331   0.990       .  S
C319       C1109   1.533       .  S
N342        C346   1.385   1_554  A
N342        C343   1.384       .  A
N342        C739   1.510       .  S
C343        C344   1.377       .  A
C343       C1069   1.545       .  S
C344        C345   1.365       .  A
C344        H347   1.080       .  S
C345        C346   1.393   1_554  A
C345        H348   1.077       .  S
C346        C929   1.532       .  S
Zr349       O350   2.455       .  S
Zr349       O351   2.457       .  S
Zr349       O352   2.356       .  S
Zr349       O355   2.374       .  S
Zr349       O358   2.399       .  S
Zr349       O359   2.382       .  S
Zr349       O360   2.393       .  S
Zr349       O357   2.295       .  S
O350        H406   0.991       .  S
O350        H414   0.983       .  S
O351        C371   1.285       .  A
O352        C373   1.259       .  A
O353       Zr363   2.607       .  S
O353        C372   1.306       .  A
O354       Zr362   2.595       .  S
O354        C373   1.315       .  A
O355        C372   1.256       .  A
O356       Zr364   2.331       .  S
O356        C371   1.263       .  A
O357       Zr362   2.309       .  S
O357       Zr364   2.322       .  S
O358       Zr363   2.397       .  S
O358       Zr364   2.385       .  S
O358        H393   0.970       .  S
O359       Zr362   2.383       .  S
O359       Zr379   2.393       .  S
O359        H396   0.964       .  S
O360       Zr363   2.407       .  S
O360       Zr379   2.392       .  S
Zr361       O386   2.449       .  S
Zr361       O380   2.362       .  S
Zr361       O388   2.361       .  S
Zr361       O376   2.383       .  S
Zr361       O367   2.386       .  S
Zr361       O368   2.370       .  S
Zr361       O370   2.389       .  S
Zr361       O369   2.287       .  S
Zr362       O381   2.446       .  S
Zr362       O374   2.441       .  S
Zr362       O375   2.582       .  S
Zr362       O368   2.401       .  S
Zr362       O369   2.311       .  S
Zr363       O365   2.435       .  S
Zr363       O387   2.436       .  S
Zr363       O389   2.577       .  S
Zr363       O367   2.420       .  S
Zr363       O370   2.405       .  S
Zr364       O390   2.446       .  S
Zr364       O391   2.448       .  S
Zr364       O366   2.437       .  S
Zr364       O367   2.371       .  S
Zr364       O368   2.370       .  S
O365        H402   0.990       .  S
O366        H397   0.990       .  S
O366        H411   0.990       .  S
O368        H394   0.964       .  S
O369       Zr379   2.302       .  S
O370       Zr379   2.366       .  S
O370        H395   0.963       .  S
C371        C909   1.438       .  S
C372        C919   1.551       .  S
C373        C896   1.528       .  S
O374        H410   0.990       .  S
O375        C377   1.312       .  A
O376        C377   1.267       .  A
C377       C1199   1.541       .  S
O378       Zr379   2.446       .  S
O378        H407   0.990       .  S
Zr379       O382   2.433       .  S
Zr379       O383   2.449       .  S
Zr379       O384   2.428       .  S
O380        C385   1.259       .  A
O381        H398   0.990       .  S
O381        H413   0.990       .  S
O382        H399   0.990       .  S
O383        H403   0.990       .  S
O383        H412   0.990       .  S
O384        C385   1.279       .  A
C385       C1159   1.461       .  S
O386        H405   0.990       .  S
O386        H409   0.988       .  S
O387        H401   0.990       .  S
O387        H408   0.990       .  S
O388        C392   1.272       .  A
O389        C392   1.313       .  A
O390        H400   0.990       .  S
O391        H404   0.990       .  S
C392        C926   1.513       .  S
Zr415       O416   2.439       .  S
Zr415       O417   2.403       .  S
Zr415       O418   2.374       .  S
Zr415       O421   2.395       .  S
Zr415       O423   2.376       .  S
Zr415       O424   2.379       .  S
Zr415       O425   2.389       .  S
Zr415       O426   2.385       .  S
O416        H472   0.990       .  S
O416        H480   0.989       .  S
O417        C437   1.275       .  A
O418        C439   1.275       .  A
O419       Zr429   2.513       .  S
O419        C438   1.293       .  A
O420       Zr428   2.482       .  S
O420        C439   1.295       .  A
O421        C438   1.269       .  A
O422       Zr430   2.418       .  S
O422        C437   1.279       .  A
O423       Zr428   2.376       .  S
O423       Zr430   2.362       .  S
O424       Zr429   2.405       .  S
O424       Zr430   2.358       .  S
O424        H459   0.976       .  S
O425       Zr428   2.402       .  S
O425       Zr445   2.381       .  S
O425        H462   0.962       .  S
O426       Zr429   2.420       .  S
O426       Zr445   2.399       .  S
Zr427       O452   2.437       .  S
Zr427       O446   2.371       .  S
Zr427       O454   2.401       .  S
Zr427       O442   2.391       .  S
Zr427       O433   2.384       .  S
Zr427       O434   2.383       .  S
Zr427       O435   2.385       .  S
Zr427       O436   2.380       .  S
Zr428       O447   2.437       .  S
Zr428       O440   2.433       .  S
Zr428       O441   2.466       .  S
Zr428       O434   2.408       .  S
Zr428       O435   2.380       .  S
Zr429       O431   2.434       .  S
Zr429       O453   2.433       .  S
Zr429       O455   2.497       .  S
Zr429       O433   2.434       .  S
Zr429       O436   2.405       .  S
Zr430       O456   2.433       .  S
Zr430       O457   2.436       .  S
Zr430       O432   2.440       .  S
Zr430       O433   2.405       .  S
Zr430       O434   2.379       .  S
O431        H468   0.990       .  S
O432        H463   0.990       .  S
O432        H477   0.990       .  S
O434        H460   0.965       .  S
O435       Zr445   2.370       .  S
O436       Zr445   2.338       .  S
O436        H461   0.969       .  S
C437       C1149   1.481       .  S
C438       C1179   1.523       .  S
C439       C1239   1.479       .  S
O440        H476   0.990       .  S
O441        C443   1.291       .  A
O442        C443   1.279       .  A
C443        C876   1.493       .  S
O444       Zr445   2.437       .  S
O444        H473   0.990       .  S
Zr445       O448   2.434       .  S
Zr445       O449   2.442       .  S
Zr445       O450   2.421       .  S
O446        C451   1.269       .  A
O447        H464   0.990       .  S
O447        H479   0.990       .  S
O448        H465   0.990       .  S
O449        H469   0.989       .  S
O449        H478   0.989       .  S
O450        C451   1.283       .  A
C451        C886   1.465       .  S
O452        H471   0.990       .  S
O452        H475   0.990       .  S
O453        H467   0.990       .  S
O453        H474   0.990       .  S
O454        C458   1.271       .  A
O455        C458   1.288       .  A
O456        H466   0.990       .  S
O457        H470   0.989       .  S
C458        C869   1.503       .  S
Zr481       O482   2.452       .  S
Zr481       O483   2.478       .  S
Zr481       O484   2.371       .  S
Zr481       O487   2.322       .  S
Zr481       O489   2.387       .  S
Zr481       O490   2.380       .  S
Zr481       O491   2.388       .  S
Zr481       O492   2.296       .  S
O482        H538   0.990       .  S
O482        H546   0.990       .  S
O483        C503   1.289       .  A
O484        C505   1.253       .  A
O485       Zr495   2.586       .  S
O485        C504   1.315       .  A
O486       Zr494   2.605       .  S
O486        C505   1.312       .  A
O487        C504   1.260       .  A
O488       Zr496   2.403       .  S
O488        C503   1.276       .  A
O489       Zr494   2.378       .  S
O489       Zr496   2.381       .  S
O490       Zr495   2.385       .  S
O490       Zr496   2.382       .  S
O490        H525   0.962       .  S
O491       Zr494   2.408       .  S
O491       Zr511   2.387       .  S
O491        H528   0.962       .  S
O492       Zr495   2.327       .  S
O492       Zr511   2.329       .  S
Zr493       O518   2.468       .  S
Zr493       O512   2.422       .  S
Zr493       O520   2.367       .  S
Zr493       O508   2.358       .  S
Zr493       O499   2.389       .  S
Zr493       O500   2.403       .  S
Zr493       O502   2.373       .  S
Zr493       O501   2.284       .  S
Zr494       O513   2.436       .  S
Zr494       O506   2.445       .  S
Zr494       O507   2.576       .  S
Zr494       O500   2.400       .  S
Zr494       O501   2.332       .  S
Zr495       O497   2.434       .  S
Zr495       O519   2.447       .  S
Zr495       O521   2.584       .  S
Zr495       O499   2.395       .  S
Zr495       O502   2.389       .  S
Zr496       O522   2.435       .  S
Zr496       O523   2.440       .  S
Zr496       O498   2.437       .  S
Zr496       O499   2.388       .  S
Zr496       O500   2.378       .  S
O497        H534   0.990       .  S
O498        H529   0.990       .  S
O498        H543   0.990       .  S
O500        H526   0.931       .  S
O501       Zr511   2.311       .  S
O502       Zr511   2.373       .  S
O502        H527   0.973       .  S
C503       C1216   1.480       .  S
C504       C1186   1.515       .  S
C505       C1259   1.529       .  S
O506        H542   0.990       .  S
O507        C509   1.303       .  A
O508        C509   1.257       .  A
C509        C849   1.526       .  S
O510       Zr511   2.447       .  S
O510        H539   0.990       .  S
Zr511       O514   2.442       .  S
Zr511       O515   2.451       .  S
Zr511       O516   2.420       .  S
O512        C517   1.275       .  A
O513        H530   0.989       .  S
O513        H545   0.990       .  S
O514        H531   0.990       .  S
O515        H535   0.990       .  S
O515        H544   0.989       .  S
O516        C517   1.274       .  A
C517        C856   1.464       .  S
O518        H537   0.983       .  S
O518        H541   0.990       .  S
O519        H533   0.990       .  S
O519        H540   0.990       .  S
O520        C524   1.259       .  A
O521        C524   1.310       .  A
O522        H532   0.990       .  S
O523        H536   0.990       .  S
C524        C836   1.520       .  S
Zr547       O548   2.443       .  S
Zr547       O549   2.385       .  S
Zr547       O550   2.347       .  S
Zr547       O553   2.368       .  S
Zr547       O555   2.377       .  S
Zr547       O556   2.384       .  S
Zr547       O557   2.386       .  S
Zr547       O558   2.375       .  S
O548        H604   0.988       .  S
O548        H612   0.989       .  S
O549        C569   1.271       .  A
O550        C571   1.265       .  A
O551       Zr561   2.551       .  S
O551        C570   1.305       .  A
O552       Zr560   2.528       .  S
O552        C571   1.303       .  A
O553        C570   1.266       .  A
O554       Zr562   2.434       .  S
O554        C569   1.281       .  A
O555       Zr560   2.385       .  S
O555       Zr562   2.359       .  S
O556       Zr561   2.382       .  S
O556       Zr562   2.362       .  S
O556        H591   0.968       .  S
O557       Zr560   2.412       .  S
O557       Zr577   2.382       .  S
O557        H594   0.966       .  S
O558       Zr561   2.398       .  S
O558       Zr577   2.384       .  S
Zr559       O584   2.444       .  S
Zr559       O578   2.437       .  S
Zr559       O586   2.388       .  S
Zr559       O574   2.380       .  S
Zr559       O565   2.402       .  S
Zr559       O566   2.420       .  S
Zr559       O567   2.378       .  S
Zr559       O568   2.390       .  S
Zr560       O579   2.436       .  S
Zr560       O572   2.434       .  S
Zr560       O573   2.541       .  S
Zr560       O566   2.393       .  S
Zr560       O567   2.393       .  S
Zr561       O563   2.434       .  S
Zr561       O585   2.434       .  S
Zr561       O587   2.503       .  S
Zr561       O565   2.414       .  S
Zr561       O568   2.413       .  S
Zr562       O588   2.437       .  S
Zr562       O589   2.434       .  S
Zr562       O564   2.436       .  S
Zr562       O565   2.391       .  S
Zr562       O566   2.397       .  S
O563        H600   0.990       .  S
O564        H595   0.989       .  S
O564        H609   0.990       .  S
O566        H592   0.972       .  S
O567       Zr577   2.388       .  S
O568       Zr577   2.389       .  S
O568        H593   0.968       .  S
C569       C1166   1.475       .  S
C570       C1206   1.527       .  S
C571       C1279   1.481       .  S
O572        H608   0.990       .  S
O573        C575   1.303       .  A
O574        C575   1.262       .  A
C575        C816   1.517       .  S
O576       Zr577   2.437       .  S
O576        H605   0.990       .  S
Zr577       O580   2.438       .  S
Zr577       O581   2.438       .  S
Zr577       O582   2.366       .  S
O578        C583   1.284       .  A
O579        H596   0.989       .  S
O579        H611   0.990       .  S
O580        H597   0.990       .  S
O581        H601   0.990       .  S
O581        H610   0.990       .  S
O582        C583   1.268       .  A
C583        C826   1.458       .  S
O584        H603   0.988       .  S
O584        H607   0.990       .  S
O585        H599   0.990       .  S
O585        H606   0.990       .  S
O586        C590   1.264       .  A
O587        C590   1.288       .  A
O588        H598   0.990       .  S
O589        H602   0.990       .  S
C590        C806   1.512       .  S
N613        C617   1.357       .  A
N613        C614   1.359       .  A
N613        C762   1.467       .  S
C614        C615   1.387       .  A
C614        C829   1.514       .  S
C615        C616   1.364       .  A
C615        H618   1.069       .  S
C616        C617   1.377       .  A
C616        H619   1.075       .  S
C617        C879   1.518       .  S
N620        C624   1.358       .  A
N620        C621   1.354       .  A
N620        C764   1.459       .  S
C621        C622   1.385       .  A
C621        C906   1.456       .  S
C622        C623   1.347       .  A
C622        H625   1.083       .  S
C623        C624   1.374       .  A
C623        H626   1.084       .  S
C624        C889   1.457       .  S
N627        C631   1.387       .  A
N627        C628   1.383       .  A
N627        C763   1.537       .  S
C628        C629   1.376       .  A
C628        C846   1.565       .  S
C629        C630   1.377       .  A
C629        H632   1.082       .  S
C630        C631   1.400       .  A
C630        H633   1.077       .  S
C631        C916   1.586       .  S
N634        C638   1.380       .  A
N634        C635   1.356       .  A
N634        C765   1.488       .  S
C635        C636   1.393       .  A
C635        C859   1.509       .  S
C636        C637   1.374       .  A
C636        H639   1.068       .  S
C637        C638   1.368       .  A
C637        H640   1.076       .  S
C638        C819   1.549       .  S
N641        C645   1.386       .  A
N641        C642   1.385       .  A
N641        C793   1.520       .  S
C642        C643   1.383       .  A
C642        C989   1.563       .  S
C643        C644   1.377       .  A
C643        H646   1.082       .  S
C644        C645   1.393       .  A
C644        H647   1.081       .  S
C645       C1049   1.556       .  S
N648        C652   1.388       .  A
N648        C649   1.358       .  A
N648        C800   1.495       .  S
C649        C650   1.368       .  A
C649        C979   1.492       .  S
C650        C651   1.363       .  A
C650        H653   1.076       .  S
C651        C652   1.376       .  A
C651        H654   1.081       .  S
C652        C959   1.557       .  S
N655        C659   1.380       .  A
N655        C656   1.385       .  A
N655        C794   1.522       .  S
C656        C657   1.389       .  A
C656        C949   1.552       .  S
C657        C658   1.361       .  A
C657        H660   1.074       .  S
C658        C659   1.378       .  A
C658        H661   1.071       .  S
C659       C1019   1.565       .  S
N662        C666   1.375       .  A
N662        C663   1.353       .  A
N662        C799   1.471       .  S
C663        C664   1.371       .  A
C663       C1056   1.456       .  S
C664        C665   1.357       .  A
C664        H667   1.082       .  S
C665        C666   1.396       .  A
C665        H668   1.065       .  S
C666       C1006   1.560       .  S
N669        C673   1.389       .  A
N669        C670   1.370       .  A
N669        C797   1.485       .  S
C670        C671   1.368       .  A
C670        C936   1.512       .  S
C671        C672   1.348       .  A
C671        H674   1.072       .  S
C672        C673   1.384       .  A
C672        H675   1.077       .  S
C673        C809   1.534       .  S
N676        C680   1.350       .  A
N676        C677   1.375       .  A
N676        C796   1.492       .  S
C677        C678   1.385       .  A
C677        C969   1.550       .  S
C678        C679   1.373       .  A
C678        H681   1.082       .  S
C679        C680   1.384       .  A
C679        H682   1.082       .  S
C680        C839   1.500       .  S
N683        C687   1.391       .  A
N683        C684   1.346       .  A
N683        C798   1.482       .  S
C684        C685   1.375       .  A
C684        C999   1.480       .  S
C685        C686   1.361       .  A
C685        H688   1.076       .  S
C686        C687   1.376       .  A
C686        H689   1.083       .  S
C687        C866   1.538       .  S
N690        C694   1.389       .  A
N690        C691   1.389       .  A
N690        C795   1.499       .  S
C691        C692   1.388       .  A
C691       C1039   1.523       .  S
C692        C693   1.344       .  A
C692        H695   1.084       .  S
C693        C694   1.378       .  A
C693        H696   1.083       .  S
C694        C899   1.497       .  S
O697       Zr733   2.562   1_556  S
O697        C708   1.318       .  A
O698       Zr732   2.436   1_565  S
O698        C709   1.293       .  A
O699       Zr705   2.557       .  S
O699        C710   1.314       .  A
O700       Zr705   2.505   1_554  S
O700        C711   1.310       .  A
O701       Zr735   2.585       .  S
O701        C711   1.320       .  A
O702       Zr734   2.413   1_565  S
O702        C710   1.292       .  A
O703       Zr705   2.526   1_455  S
O703        C709   1.307       .  A
O704       Zr705   2.432       .  S
O704        C708   1.292       .  A
Zr705       O706   2.368   1_556  S
Zr705       O707   2.390       .  S
Zr705       O715   2.399   1_556  S
Zr705       O713   2.317       .  S
O706       Zr732   2.347   1_664  S
O706       Zr735   2.387       .  S
O707       Zr733   2.358   1_556  S
O707       Zr734   2.364   1_565  S
H712        O713   0.959       .  S
O713       Zr732   2.303   1_665  S
O713       Zr734   2.353   1_565  S
H714        O715   0.953       .  S
O715       Zr733   2.372       .  S
O715       Zr735   2.396       .  S
O716       Zr732   2.408   1_554  S
O716        C739   1.290       .  A
O717       Zr733   2.462   1_545  S
O717        C740   1.296       .  A
O718       Zr734   2.436       .  S
O718        C741   1.289   1_655  A
O719       Zr735   2.577   1_455  S
O719        C742   1.318       .  A
O720       Zr735   2.561       .  S
O720        C743   1.315       .  A
O721       Zr734   2.483       .  S
O721        C744   1.304       .  A
O722       Zr736   2.648   1_556  S
O722        C745   1.332       .  A
O723       Zr736   2.601       .  S
O723        C746   1.326       .  A
O724       Zr734   2.478       .  S
O724        C745   1.302       .  A
O725       Zr735   2.546   1_545  S
O725        C746   1.317       .  A
O726       Zr732   2.465       .  S
O726        C741   1.298       .  A
O727       Zr733   2.545   1_546  S
O727        C744   1.309       .  A
O728       Zr733   2.524       .  S
O728        C743   1.309       .  A
O729       Zr732   2.434   1_564  S
O729        C742   1.293       .  A
O730       Zr736   2.624       .  S
O730        C739   1.327   1_655  A
O731       Zr736   2.578       .  S
O731        C740   1.327       .  A
Zr732       O738   2.363   1_455  S
Zr732       O750   2.355   1_456  S
Zr733       O737   2.407   1_565  S
Zr733       O748   2.409   1_564  S
Zr734       O738   2.360       .  S
Zr734       O748   2.335       .  S
Zr735       O737   2.396   1_565  S
Zr735       O750   2.394   1_565  S
Zr736       O737   2.431       .  S
Zr736       O738   2.368   1_554  S
Zr736       O750   2.397       .  S
Zr736       O748   2.416   1_554  S
H747        O748   0.964       .  S
H749        O750   0.955       .  S
O751       Zr787   2.480       .  S
O751        C762   1.299       .  A
O752       Zr786   2.614       .  S
O752        C763   1.328       .  A
O753       Zr759   2.420       .  S
O753        C764   1.289       .  A
O754       Zr759   2.445       .  S
O754        C765   1.302       .  A
O755       Zr789   2.522       .  S
O755        C765   1.304       .  A
O756       Zr788   2.529       .  S
O756        C764   1.307       .  A
O757       Zr759   2.562       .  S
O757        C763   1.314       .  A
O758       Zr759   2.457       .  S
O758        C762   1.300       .  A
Zr759       O760   2.348       .  S
Zr759       O761   2.374       .  S
Zr759       O769   2.372       .  S
Zr759       O767   2.343       .  S
O760       Zr786   2.392       .  S
O760       Zr789   2.415       .  S
O761       Zr787   2.356       .  S
O761       Zr788   2.330       .  S
H766        O767   0.944       .  S
O767       Zr786   2.372       .  S
O767       Zr788   2.376       .  S
H768        O769   0.966       .  S
O769       Zr787   2.364       .  S
O769       Zr789   2.347       .  S
O770       Zr786   2.571       .  S
O770        C793   1.318       .  A
O771       Zr787   2.466       .  S
O771        C794   1.299       .  A
O772       Zr788   2.510       .  S
O772        C795   1.305       .  A
O773       Zr789   2.470       .  S
O773        C796   1.297       .  A
O774       Zr789   2.557       .  S
O774        C797   1.313       .  A
O775       Zr788   2.514       .  S
O775        C798   1.307       .  A
O776       Zr790   2.529       .  S
O776        C799   1.310       .  A
O777       Zr790   2.522       .  S
O777        C800   1.306       .  A
O778       Zr788   2.431       .  S
O778        C799   1.295       .  A
O779       Zr789   2.532       .  S
O779        C800   1.313       .  A
O780       Zr786   2.587       .  S
O780        C795   1.324       .  A
O781       Zr787   2.515       .  S
O781        C798   1.307       .  A
O782       Zr787   2.441       .  S
O782        C797   1.294       .  A
O783       Zr786   2.587       .  S
O783        C796   1.328       .  A
O784       Zr790   2.552       .  S
O784        C793   1.319       .  A
O785       Zr790   2.621       .  S
O785        C794   1.328       .  A
Zr786       O792   2.396       .  S
Zr786       O804   2.421       .  S
Zr787       O791   2.377       .  S
Zr787       O802   2.350       .  S
Zr788       O792   2.393       .  S
Zr788       O802   2.380       .  S
Zr789       O791   2.366       .  S
Zr789       O804   2.403       .  S
Zr790       O791   2.378       .  S
Zr790       O792   2.403       .  S
Zr790       O804   2.389       .  S
Zr790       O802   2.382       .  S
H801        O802   0.965       .  S
H803        O804   0.964       .  S
C805        C806   1.418       .  A
C805        C810   1.415       .  A
C805       Br812   1.942       .  S
C806        C807   1.404       .  A
C807        C808   1.419       .  A
C807       Br814   1.934       .  S
C808        C809   1.441       .  A
C808       Br813   1.942       .  S
C809        C810   1.421       .  A
C810       Br811   1.928       .  S
C815        C816   1.396       .  A
C815        C820   1.415       .  A
C815       Br822   1.939       .  S
C816        C817   1.426       .  A
C817        C818   1.426       .  A
C817       Br824   1.928       .  S
C818        C819   1.410       .  A
C818       Br823   1.926       .  S
C819        C820   1.453       .  A
C820       Br821   1.927       .  S
C825        C826   1.400       .  A
C825        C830   1.413       .  A
C825       Br832   1.938       .  S
C826        C827   1.384       .  A
C827        C828   1.382       .  A
C827       Br834   1.922       .  S
C828        C829   1.425       .  A
C828       Br833   1.924       .  S
C829        C830   1.443       .  A
C830       Br831   1.929       .  S
C835        C836   1.436       .  A
C835        C840   1.401       .  A
C835       Br842   1.891       .  S
C836        C837   1.407       .  A
C837        C838   1.424       .  A
C837       Br844   1.927       .  S
C838        C839   1.425       .  A
C838       Br843   1.904       .  S
C839        C840   1.380       .  A
C840       Br841   1.938       .  S
C845        C846   1.456       .  A
C845        C850   1.436       .  A
C845       Br852   1.934       .  S
C846        C847   1.411       .  A
C847        C848   1.419       .  A
C847       Br854   1.920       .  S
C848        C849   1.414       .  A
C848       Br853   1.915       .  S
C849        C850   1.404       .  A
C850       Br851   1.932       .  S
C855        C856   1.393       .  A
C855        C860   1.407       .  A
C855       Br862   1.927       .  S
C856        C857   1.395       .  A
C857        C858   1.403       .  A
C857       Br864   1.932       .  S
C858        C859   1.432       .  A
C858       Br863   1.939       .  S
C859        C860   1.431       .  A
C860       Br861   1.930       .  S
C865        C866   1.429       .  A
C865        C870   1.408       .  A
C865       Br872   1.928       .  S
C866        C867   1.417       .  A
C867        C868   1.428       .  A
C867       Br874   1.928       .  S
C868        C869   1.419       .  A
C868       Br873   1.920       .  S
C869        C870   1.401       .  A
C870       Br871   1.930       .  S
C875        C876   1.408       .  A
C875        C880   1.405       .  A
C875       Br882   1.933       .  S
C876        C877   1.415       .  A
C877        C878   1.412       .  A
C877       Br884   1.932       .  S
C878        C879   1.415       .  A
C878       Br883   1.921       .  S
C879        C880   1.429       .  A
C880       Br881   1.935       .  S
C885        C886   1.405       .  A
C885        C890   1.389       .  A
C885       Br892   1.937       .  S
C886        C887   1.417       .  A
C887        C888   1.396       .  A
C887       Br894   1.933       .  S
C888        C889   1.393       .  A
C888       Br893   1.900       .  S
C889        C890   1.421       .  A
C890       Br891   1.939       .  S
C895        C896   1.439       .  A
C895        C900   1.408       .  A
C895       Br902   1.900       .  S
C896        C897   1.410       .  A
C897        C898   1.431       .  A
C897       Br904   1.925       .  S
C898        C899   1.429       .  A
C898       Br903   1.914       .  S
C899        C900   1.389       .  A
C900       Br901   1.932       .  S
C905        C906   1.419       .  A
C905        C910   1.388       .  A
C905       Br912   1.944       .  S
C906        C907   1.412       .  A
C907        C908   1.398       .  A
C907       Br914   1.937       .  S
C908        C909   1.396       .  A
C908       Br913   1.924       .  S
C909        C910   1.397       .  A
C910       Br911   1.935       .  S
C915        C916   1.432       .  A
C915        C920   1.439       .  A
C915       Br922   1.890       .  S
C916        C917   1.428       .  A
C917        C918   1.433       .  A
C917       Br924   1.930       .  S
C918        C919   1.423       .  A
C918       Br923   1.931       .  S
C919        C920   1.409       .  A
C920       Br921   1.919       .  S
C925        C926   1.413       .  A
C925        C930   1.431       .  A
C925       Br932   1.923       .  S
C926        C927   1.413       .  A
C927        C928   1.411       .  A
C927       Br934   1.925       .  S
C928        C929   1.417       .  A
C928       Br933   1.929       .  S
C929        C930   1.435       .  A
C930       Br931   1.933       .  S
C935        C936   1.412       .  A
C935        C940   1.413       .  A
C935       Br942   1.910       .  S
C936        C937   1.430       .  A
C937        C938   1.400       .  A
C937       Br944   1.935       .  S
C938        C939   1.403       .  A
C938       Br943   1.934       .  S
C939        C940   1.402       .  A
C940       Br941   1.911       .  S
C945        C946   1.440       .  A
C945        C950   1.415       .  A
C945       Br952   1.914       .  S
C946        C947   1.412       .  A
C947        C948   1.437       .  A
C947       Br954   1.933       .  S
C948        C949   1.447       .  A
C948       Br953   1.924       .  S
C949        C950   1.396       .  A
C950       Br951   1.934       .  S
C955        C956   1.401       .  A
C955        C960   1.421       .  A
C955       Br962   1.936       .  S
C956        C957   1.430       .  A
C957        C958   1.419       .  A
C957       Br964   1.935       .  S
C958        C959   1.413       .  A
C958       Br963   1.937       .  S
C959        C960   1.459       .  A
C960       Br961   1.943       .  S
C965        C966   1.416       .  A
C965        C970   1.426       .  A
C965       Br972   1.923       .  S
C966        C967   1.405       .  A
C967        C968   1.417       .  A
C967       Br974   1.934       .  S
C968        C969   1.439       .  A
C968       Br973   1.937       .  S
C969        C970   1.415       .  A
C970       Br971   1.912       .  S
C975        C976   1.422       .  A
C975        C980   1.402       .  A
C975       Br982   1.930       .  S
C976        C977   1.410       .  A
C977        C978   1.412       .  A
C977       Br984   1.932       .  S
C978        C979   1.414       .  A
C978       Br983   1.905       .  S
C979        C980   1.396       .  A
C980       Br981   1.908       .  S
C985        C986   1.434       .  A
C985        C990   1.433       .  A
C985       Br992   1.932       .  S
C986        C987   1.416       .  A
C987        C988   1.430       .  A
C987       Br994   1.932       .  S
C988        C989   1.445       .  A
C988       Br993   1.938       .  S
C989        C990   1.418       .  A
C990       Br991   1.939       .  S
C995        C996   1.415       .  A
C995       C1000   1.415       .  A
C995      Br1002   1.925       .  S
C996        C997   1.424       .  A
C997        C998   1.392       .  A
C997      Br1004   1.937       .  S
C998        C999   1.391       .  A
C998      Br1003   1.907       .  S
C999       C1000   1.408       .  A
C1000     Br1001   1.924       .  S
C1005      C1006   1.454       .  A
C1005      C1010   1.420       .  A
C1005     Br1012   1.938       .  S
C1006      C1007   1.434       .  A
C1007      C1008   1.419       .  A
C1007     Br1014   1.931       .  S
C1008      C1009   1.408       .  A
C1008     Br1013   1.934       .  S
C1009      C1010   1.403       .  A
C1010     Br1011   1.938       .  S
C1015      C1016   1.407       .  A
C1015      C1020   1.425       .  A
C1015     Br1022   1.944       .  S
C1016      C1017   1.417       .  A
C1017      C1018   1.421       .  A
C1017     Br1024   1.934       .  S
C1018      C1019   1.425       .  A
C1018     Br1023   1.934       .  S
C1019      C1020   1.457       .  A
C1020     Br1021   1.945       .  S
C1025      C1026   1.396       .  A
C1025      C1030   1.408       .  A
C1025     Br1032   1.945       .  S
C1026      C1027   1.414       .  A
C1027      C1028   1.422       .  A
C1027     Br1034   1.932       .  S
C1028      C1029   1.430       .  A
C1028     Br1033   1.928       .  S
C1029      C1030   1.444       .  A
C1030     Br1031   1.911       .  S
C1035      C1036   1.419       .  A
C1035      C1040   1.425       .  A
C1035     Br1042   1.927       .  S
C1036      C1037   1.422       .  A
C1037      C1038   1.419       .  A
C1037     Br1044   1.931       .  S
C1038      C1039   1.419       .  A
C1038     Br1043   1.932       .  S
C1039      C1040   1.420       .  A
C1040     Br1041   1.915       .  S
C1045      C1046   1.417       .  A
C1045      C1050   1.437       .  A
C1045     Br1052   1.924       .  S
C1046      C1047   1.417       .  A
C1047      C1048   1.415       .  A
C1047     Br1054   1.935       .  S
C1048      C1049   1.421       .  A
C1048     Br1053   1.915       .  S
C1049      C1050   1.433       .  A
C1050     Br1051   1.923       .  S
C1055      C1056   1.398       .  A
C1055      C1060   1.399       .  A
C1055     Br1062   1.927       .  S
C1056      C1057   1.411       .  A
C1057      C1058   1.385       .  A
C1057     Br1064   1.922       .  S
C1058      C1059   1.406       .  A
C1058     Br1063   1.937       .  S
C1059      C1060   1.419       .  A
C1060     Br1061   1.918       .  S
C1065      C1066   1.404       .  A
C1065      C1070   1.417       .  A
C1065     Br1072   1.942       .  S
C1066      C1067   1.421       .  A
C1067      C1068   1.421       .  A
C1067     Br1074   1.930       .  S
C1068      C1069   1.415       .  A
C1068     Br1073   1.931       .  S
C1069      C1070   1.451       .  A
C1070     Br1071   1.941       .  S
C1075      C1076   1.421       .  A
C1075      C1080   1.398       .  A
C1075     Br1082   1.932       .  S
C1076      C1077   1.396       .  A
C1077      C1078   1.400       .  A
C1077     Br1084   1.914       .  S
C1078      C1079   1.419       .  A
C1078     Br1083   1.917       .  S
C1079      C1080   1.414       .  A
C1080     Br1081   1.938       .  S
C1085      C1086   1.415       .  A
C1085      C1090   1.427       .  A
C1085     Br1092   1.938       .  S
C1086      C1087   1.446       .  A
C1087      C1088   1.432       .  A
C1087     Br1094   1.939       .  S
C1088      C1089   1.416       .  A
C1088     Br1093   1.932       .  S
C1089      C1090   1.432       .  A
C1090     Br1091   1.932       .  S
C1095      C1096   1.420       .  A
C1095      C1100   1.439       .  A
C1095     Br1102   1.929       .  S
C1096      C1097   1.419       .  A
C1097      C1098   1.420   1_455  A
C1097     Br1104   1.934   1_455  S
C1098      C1099   1.421       .  A
C1098     Br1103   1.912       .  S
C1099      C1100   1.436   1_655  A
C1100     Br1101   1.926       .  S
C1105      C1106   1.411       .  A
C1105      C1110   1.422       .  A
C1105     Br1112   1.929       .  S
C1106      C1107   1.432       .  A
C1107      C1108   1.428       .  A
C1107     Br1114   1.939       .  S
C1108      C1109   1.421       .  A
C1108     Br1113   1.928       .  S
C1109      C1110   1.427       .  A
C1110     Br1111   1.930       .  S
C1115      C1116   1.417       .  A
C1115      C1120   1.415       .  A
C1115     Br1122   1.913       .  S
C1116      C1117   1.399       .  A
C1117      C1118   1.415       .  A
C1117     Br1124   1.906       .  S
C1118      C1119   1.426       .  A
C1118     Br1123   1.928       .  S
C1119      C1120   1.415       .  A
C1120     Br1121   1.932       .  S
C1125      C1126   1.419       .  A
C1125      C1130   1.424   1_655  A
C1125     Br1132   1.941       .  S
C1126      C1127   1.446       .  A
C1127      C1128   1.422   1_655  A
C1127     Br1134   1.938       .  S
C1128      C1129   1.413       .  A
C1128     Br1133   1.940       .  S
C1129      C1130   1.426       .  A
C1130     Br1131   1.929       .  S
C1135      C1136   1.457       .  A
C1135      C1140   1.434       .  A
C1135     Br1142   1.926       .  S
C1136      C1137   1.428       .  A
C1137      C1138   1.417       .  A
C1137     Br1144   1.918       .  S
C1138      C1139   1.409       .  A
C1138     Br1143   1.930       .  S
C1139      C1140   1.403       .  A
C1140     Br1141   1.932       .  S
C1145      C1146   1.423       .  A
C1145      C1150   1.404       .  A
C1145     Br1152   1.938   1_565  S
C1146      C1147   1.396       .  A
C1147      C1148   1.397       .  A
C1147     Br1154   1.905       .  S
C1148      C1149   1.418       .  A
C1148     Br1153   1.930       .  S
C1149      C1150   1.414       .  A
C1150     Br1151   1.938       .  S
C1155      C1156   1.379       .  A
C1155      C1160   1.389       .  A
C1155     Br1162   1.929       .  S
C1156      C1157   1.401       .  A
C1157      C1158   1.400       .  A
C1157     Br1164   1.918       .  S
C1158      C1159   1.408       .  A
C1158     Br1163   1.930       .  S
C1159      C1160   1.428       .  A
C1160     Br1161   1.914       .  S
C1165      C1166   1.414       .  A
C1165      C1170   1.399       .  A
C1165     Br1172   1.939       .  S
C1166      C1167   1.421       .  A
C1167      C1168   1.397       .  A
C1167     Br1174   1.938       .  S
C1168      C1169   1.404       .  A
C1168     Br1173   1.928       .  S
C1169      C1170   1.417       .  A
C1170     Br1171   1.941       .  S
C1175      C1176   1.426       .  A
C1175      C1180   1.420       .  A
C1175     Br1182   1.920       .  S
C1176      C1177   1.448   1_655  A
C1177      C1178   1.431       .  A
C1177     Br1184   1.931       .  S
C1178      C1179   1.414       .  A
C1178     Br1183   1.940       .  S
C1179      C1180   1.413   1_455  A
C1180     Br1181   1.936       .  S
C1185      C1186   1.421       .  A
C1185      C1190   1.425       .  A
C1185     Br1192   1.929       .  S
C1186      C1187   1.395       .  A
C1187      C1188   1.431       .  A
C1187     Br1194   1.938       .  S
C1188      C1189   1.459       .  A
C1188     Br1193   1.923       .  S
C1189      C1190   1.420       .  A
C1190     Br1191   1.930       .  S
C1195      C1196   1.423       .  A
C1195      C1200   1.431   1_655  A
C1195     Br1202   1.930       .  S
C1196      C1197   1.459       .  A
C1197      C1198   1.435   1_655  A
C1197     Br1204   1.936       .  S
C1198      C1199   1.408       .  A
C1198     Br1203   1.940       .  S
C1199      C1200   1.424       .  A
C1200     Br1201   1.930       .  S
C1205      C1206   1.412       .  A
C1205      C1210   1.422       .  A
C1205     Br1212   1.936       .  S
C1206      C1207   1.432       .  A
C1207      C1208   1.425       .  A
C1207     Br1214   1.931       .  S
C1208      C1209   1.404       .  A
C1208     Br1213   1.921       .  S
C1209      C1210   1.440       .  A
C1210     Br1211   1.932       .  S
C1215      C1216   1.399       .  A
C1215      C1220   1.417       .  A
C1215     Br1222   1.932       .  S
C1216      C1217   1.392       .  A
C1217      C1218   1.411       .  A
C1217     Br1224   1.936       .  S
C1218      C1219   1.440       .  A
C1218     Br1223   1.923       .  S
C1219      C1220   1.440       .  A
C1220     Br1221   1.933       .  S
C1225      C1226   1.398       .  A
C1225      C1230   1.406       .  A
C1225     Br1232   1.915       .  S
C1226      C1227   1.418       .  A
C1227      C1228   1.403       .  A
C1227     Br1234   1.926   1_554  S
C1228      C1229   1.417       .  A
C1228     Br1233   1.934       .  S
C1229      C1230   1.418       .  A
C1230     Br1231   1.904       .  S
C1235      C1236   1.428       .  A
C1235      C1240   1.412       .  A
C1235     Br1242   1.934       .  S
C1236      C1237   1.438       .  A
C1237      C1238   1.412       .  A
C1237     Br1244   1.928       .  S
C1238      C1239   1.402       .  A
C1238     Br1243   1.939       .  S
C1239      C1240   1.405       .  A
C1240     Br1241   1.930       .  S
C1245      C1246   1.411       .  A
C1245      C1250   1.419       .  A
C1245     Br1252   1.911       .  S
C1246      C1247   1.439       .  A
C1247      C1248   1.416       .  A
C1247     Br1254   1.932   1_554  S
C1248      C1249   1.399       .  A
C1248     Br1253   1.931       .  S
C1249      C1250   1.412       .  A
C1250     Br1251   1.924       .  S
C1255      C1256   1.377       .  A
C1255      C1260   1.391       .  A
C1255     Br1262   1.926       .  S
C1256      C1257   1.424       .  A
C1257      C1258   1.435       .  A
C1257     Br1264   1.911       .  S
C1258      C1259   1.416       .  A
C1258     Br1263   1.920       .  S
C1259      C1260   1.433       .  A
C1260     Br1261   1.899       .  S
C1265      C1266   1.405       .  A
C1265      C1270   1.414       .  A
C1265     Br1272   1.915   1_554  S
C1266      C1267   1.391       .  A
C1267      C1268   1.395       .  A
C1267     Br1274   1.915       .  S
C1268      C1269   1.421       .  A
C1268     Br1273   1.912       .  S
C1269      C1270   1.417       .  A
C1270     Br1271   1.927       .  S
C1275      C1276   1.412       .  A
C1275      C1280   1.417       .  A
C1275     Br1282   1.913       .  S
C1276      C1277   1.431       .  A
C1277      C1278   1.417       .  A
C1277     Br1284   1.924       .  S
C1278      C1279   1.404       .  A
C1278     Br1283   1.932       .  S
C1279      C1280   1.412       .  A
C1280     Br1281   1.926       .  S
