geometry optimzed in LAMMPS
_audit_creation_date              2020-12-01 
_audit_creation_method            'lammps2cif' 
_symmetry_space_group_name_H-M    'P1' 
_symmetry_Int_Tables_number       1 
_symmetry_cell_setting            triclinic 
loop_ 
_symmetry_equiv_pos_as_xyz 
  x,y,z 
_cell_length_a                    24.12652291 
_cell_length_b                    24.0380748210004 
_cell_length_c                    24.10397637749793 
_cell_angle_alpha                 91.06771288589465 
_cell_angle_beta                  92.5465460296913 
_cell_angle_gamma                 89.39368996000033 
loop_ 
_atom_site_label 
_atom_site_type_symbol 
_atom_site_fract_x 
_atom_site_fract_y 
_atom_site_fract_z 
_atom_site_charge 
C1          C  0.21854455  0.20466545  0.22751335     0.30500
C2          C  0.29492457  0.26253465  0.29123513     0.30500
C3          C  0.27196936  0.21878191  0.19767702    -0.05700
C4          C  0.19819742  0.26227022  0.25074373    -0.06500
C5          C  0.23975068  0.17601541  0.28276783    -0.06400
C6          C  0.31057381  0.24665669  0.23071673    -0.05700
C7          C  0.23677510  0.29187749  0.28337666    -0.06500
C8          C  0.28073938  0.20410018  0.31383291    -0.06400
C9          C  0.35619415  0.25332651  0.19873440    -0.31800
N10         N  0.34712890  0.23414266  0.14610514     0.14700
C11         C  0.29478465  0.21199391  0.14488362    -0.31800
H12         H  0.27466610  0.19217222  0.10881176     0.16700
C13         C  0.20997612  0.34178518  0.29919526    -0.30700
N14         N  0.15648110  0.34345724  0.27679343     0.13500
C15         C  0.14969519  0.29459446  0.24829169    -0.30700
C16         C  0.29699812  0.16877621  0.35753647    -0.31000
N17         N  0.26346683  0.12364212  0.35738223     0.14000
H18         H  0.33143919  0.17388891  0.38699542     0.16600
C19         C  0.22779714  0.12849862  0.31273616    -0.31000
H20         H  0.19454621  0.09984749  0.30440110     0.16600
H21         H  0.11178072  0.28463529  0.22603827     0.16600
H22         H  0.39463142  0.27056230  0.21244839     0.16700
H23         H  0.22876134  0.37477873  0.32447850     0.16600
N24         N  0.01284297  0.41069900  0.26104053    -0.36100
N25         N  0.10271359  0.49254732  0.27999677    -0.56700
N26         N  0.01863252  0.58555932  0.26283472    -0.36100
N27         N  0.92895152  0.50420669  0.25619116    -0.56700
C28         C  0.05631284  0.37746933  0.27893153     0.27500
C29         C  0.96455185  0.38234174  0.26620569     0.27500
C30         C  0.06558089  0.61377451  0.27844879     0.27500
C31         C  0.97431937  0.62100544  0.26741534     0.27500
C32         C  0.13264196  0.44529851  0.26936060     0.36100
C33         C  0.13532325  0.53624915  0.26785214     0.36100
C34         C  0.89581739  0.45952860  0.24259104     0.36100
C35         C  0.89916774  0.55191498  0.24431232     0.36100
C36         C  0.03486283  0.32774417  0.29635818    -0.21400
C37         C  0.97767441  0.33069910  0.28822180    -0.21400
C38         C  0.05072685  0.66769769  0.29369514    -0.21400
C39         C  0.99360335  0.67224284  0.28669350    -0.21400
C40         C  0.18355680  0.45929409  0.24986355    -0.22500
C41         C  0.18533375  0.51634774  0.24888579    -0.22500
C42         C  0.84498088  0.47949224  0.22186031    -0.22500
C43         C  0.84723550  0.53702522  0.22284235    -0.22500
C44         C  0.11484556  0.38950633  0.27674445    -0.17800
C45         C  0.90895751  0.40099373  0.25096032    -0.17800
C46         C  0.91716216  0.60898052  0.25337193    -0.17800
C47         C  0.12171619  0.59407501  0.27421244    -0.17800
H48         H  0.05794831  0.29266625  0.31329257     0.15100
H49         H  0.94903655  0.29839123  0.29806995     0.15100
H50         H  0.07830354  0.70074440  0.30786520     0.15100
H51         H  0.96916010  0.70927136  0.29477663     0.15100
H52         H  0.21531105  0.43140378  0.23532989     0.13400
H53         H  0.21919583  0.54014982  0.23390000     0.13400
H54         H  0.80984060  0.45514370  0.20666482     0.13400
H55         H  0.81478147  0.56487158  0.20776564     0.13400
H56         H  0.01618232  0.44885676  0.24154695     0.26600
H57         H  0.01790900  0.54583879  0.24460954     0.26600
C58         C  0.78855174  0.78865589  0.21682359     0.30500
C59         C  0.73639123  0.72221943  0.28822388     0.30500
C60         C  0.73429273  0.76077920  0.19413144    -0.05700
C61         C  0.82334775  0.73483485  0.23527921    -0.06500
C62         C  0.77364242  0.81694419  0.27243011    -0.06400
C63         C  0.70563345  0.72911625  0.22998671    -0.05700
C64         C  0.79610374  0.70226202  0.27292213    -0.06500
C65         C  0.74800812  0.78359388  0.30895096    -0.06400
C66         C  0.65668368  0.71305833  0.19933979    -0.31800
N67         N  0.65661041  0.73321780  0.14600485     0.14700
C68         C  0.70519047  0.76040901  0.14309821    -0.31800
H69         H  0.71755030  0.78137047  0.10650678     0.16700
C70         C  0.82961123  0.65560973  0.28441209    -0.30700
N71         N  0.87520451  0.65504952  0.25331716     0.13500
C72         C  0.87196119  0.70351874  0.22320366    -0.30700
C73         C  0.74372891  0.81614332  0.35751132    -0.31000
N74         N  0.76319599  0.86849796  0.35128160     0.14000
H75         H  0.72894670  0.80289040  0.39636907     0.16600
C76         C  0.78246973  0.86907011  0.29880129    -0.31000
H77         H  0.80272866  0.90416030  0.28119247     0.16600
H78         H  0.90167378  0.71444785  0.19303203     0.16600
H79         H  0.62380280  0.68839466  0.21498379     0.16700
H80         H  0.82131476  0.62301158  0.31297639     0.16600
N81         N  0.25393627  0.97897179  0.41416836    -0.36100
N82         N  0.25741274  0.06766780  0.50203136    -0.56700
N83         N  0.23780545  0.98375363  0.58667614    -0.36100
N84         N  0.24638850  0.89384534  0.49952492    -0.56700
C85         C  0.26935465  0.02387604  0.38500408     0.27500
C86         C  0.26590689  0.93218962  0.38390207     0.27500
C87         C  0.25424807  0.02915699  0.61833945     0.27500
C88         C  0.24745255  0.93697873  0.61730373     0.27500
C89         C  0.24988308  0.09845476  0.45531236     0.36100
C90         C  0.24357688  0.10119223  0.54566545     0.36100
C91         C  0.23807518  0.86186074  0.45235201     0.36100
C92         C  0.22728837  0.86480048  0.54285007     0.36100
C93         C  0.29138821  0.00544471  0.33581702    -0.21400
C94         C  0.28969657  0.94793795  0.33532071    -0.21400
C95         C  0.27555930  0.01066454  0.66902173    -0.21400
C96         C  0.27139396  0.95332455  0.66814548    -0.21400
C97         C  0.23092335  0.15106141  0.46921808    -0.22500
C98         C  0.22627726  0.15247991  0.52576946    -0.22500
C99         C  0.21312470  0.81268962  0.46575942    -0.22500
C100        C  0.20530213  0.81498038  0.52225194    -0.22500
C101        C  0.26151216  0.08113861  0.40013237    -0.17800
C102        C  0.25333696  0.87593575  0.39735814    -0.17800
C103        C  0.23428559  0.88022446  0.60099996    -0.17800
C104        C  0.24897800  0.08683353  0.60320429    -0.17800
H105        H  0.30736458  0.03085550  0.30368661     0.14100
H106        H  0.30447678  0.92088390  0.30271553     0.15100
H107        H  0.29367599  0.03560385  0.70283877     0.15100
H108        H  0.28623943  0.92669955  0.70074719     0.15100
H109        H  0.22034516  0.18474325  0.44138724     0.13400
H110        H  0.21045933  0.18725792  0.54893130     0.13400
H111        H  0.20081433  0.77905122  0.43754462     0.13400
H112        H  0.18556024  0.78318096  0.54540785     0.13400
H113        H  0.23165796  0.98064285  0.45013450     0.26600
H114        H  0.21679159  0.98490328  0.54799486     0.26600
N115        N  0.75397419  0.01549842  0.41510481    -0.36100
N116        N  0.74872620  0.92559971  0.49518775    -0.56700
N117        N  0.73245583  0.00824700  0.58534112    -0.36100
N118        N  0.72725851  0.09845356  0.50523491    -0.56700
C119        C  0.74756544  0.96944857  0.38107963     0.27500
C120        C  0.73520490  0.06105019  0.38656192     0.27500
C121        C  0.72147660  0.96000226  0.61116390     0.27500
C122        C  0.71355220  0.05100958  0.61738311     0.27500
C123        C  0.77113182  0.89799957  0.45166365     0.36100
C124        C  0.75794810  0.89353208  0.54062350     0.36100
C125        C  0.74167474  0.13241627  0.46367847     0.36100
C126        C  0.73259184  0.12837601  0.55387210     0.36100
C127        C  0.72380574  0.98604604  0.33068158    -0.21400
C128        C  0.71578781  0.04311662  0.33423196    -0.21400
C129        C  0.69504738  0.97241939  0.65984951    -0.21400
C130        C  0.69017613  0.02957839  0.66380101    -0.21400
C131        C  0.79616749  0.84913367  0.47032971    -0.22500
C132        C  0.78711137  0.84597051  0.52624544    -0.22500
C133        C  0.75720939  0.18360984  0.48657566    -0.22500
C134        C  0.75113475  0.18120164  0.54309819    -0.22500
C135        C  0.76289197  0.91307058  0.39464513    -0.17800
C136        C  0.73813629  0.11851952  0.40537430    -0.17800
C137        C  0.71992128  0.10890935  0.60769920    -0.17800
C138        C  0.73836121  0.90535416  0.59444366    -0.17800
H139        H  0.71208814  0.95980687  0.29526605     0.15100
H140        H  0.69674584  0.06833335  0.30192727     0.15100
H141        H  0.68109844  0.94334736  0.68986568     0.15100
H142        H  0.67155367  0.05269508  0.69724782     0.15100
H143        H  0.81779376  0.81822893  0.44599016     0.13400
H144        H  0.80050330  0.81247344  0.55323346     0.13400
H145        H  0.77268718  0.21898822  0.46541160     0.13400
H146        H  0.76068279  0.21435726  0.57284532     0.13400
H147        H  0.77438777  0.01655932  0.45412673     0.26600
H148        H  0.75672153  0.01204161  0.55103313     0.26600
C149        C  0.27250746  0.69509342  0.70820642     0.30500
C150        C  0.22295044  0.76273012  0.78286365     0.30500
C151        C  0.25404711  0.75421131  0.68733753    -0.05700
C152        C  0.21499737  0.67342367  0.72751801    -0.06500
C153        C  0.30679702  0.70574822  0.76400644    -0.06400
C154        C  0.22964834  0.78875282  0.72488128    -0.05700
C155        C  0.18897822  0.70816274  0.76626706    -0.06500
C156        C  0.28014222  0.73912300  0.80085257    -0.06400
C157        C  0.21675788  0.83898743  0.69726285    -0.31800
N158        N  0.23363532  0.83608724  0.64363988     0.14700
C159        C  0.25375152  0.78322862  0.63762782    -0.31800
H160        H  0.26698105  0.76637351  0.59921921     0.16700
C161        C  0.13706944  0.68343441  0.77458582    -0.30700
N162        N  0.13153130  0.63453052  0.74440309     0.13500
C163        C  0.17755550  0.63042861  0.71359092    -0.30700
C164        C  0.31399702  0.74552892  0.84855757    -0.31000
N165        N  0.36229772  0.71741631  0.84322225     0.14000
H166        H  0.30449434  0.77059664  0.88474148     0.16600
C167        C  0.35868030  0.69268095  0.79105760    -0.31000
H168        H  0.39106666  0.66712969  0.77377369     0.16600
H169        H  0.18183950  0.59919703  0.68135067     0.16600
H170        H  0.19710574  0.87515041  0.71557009     0.16700
H171        H  0.10540229  0.70015016  0.80074112     0.16600
N172        N  0.06710722  0.48940846  0.74912629    -0.36100
N173        N  0.98284993  0.58102872  0.74279119    -0.56700
N174        N  0.89274508  0.49885331  0.73908374    -0.36100
N175        N  0.97747839  0.40765926  0.75847135    -0.56700
C176        C  0.10035040  0.53512790  0.75691459     0.27500
C177        C  0.09728660  0.44260140  0.76325816     0.27500
C178        C  0.86386151  0.54694958  0.74727472     0.27500
C179        C  0.86128009  0.45667099  0.75659376     0.27500
C180        C  0.02986968  0.61032351  0.73358406     0.36100
C181        C  0.93827398  0.61342753  0.72638029     0.36100
C182        C  0.02141365  0.37220802  0.75031386     0.36100
C183        C  0.92985436  0.37903221  0.74503190     0.36100
C184        C  0.15220111  0.51681812  0.77640401    -0.21400
C185        C  0.15031139  0.45936382  0.78038692    -0.21400
C186        C  0.81425552  0.53517797  0.77111300    -0.21400
C187        C  0.81276088  0.47843471  0.77729485    -0.21400
C188        C  0.01491423  0.66104848  0.71108189    -0.22500
C189        C  0.95775371  0.66246538  0.70601046    -0.22500
C190        C  0.00146863  0.32146298  0.73120874    -0.22500
C191        C  0.94426987  0.32588261  0.72741037    -0.22500
C192        C  0.08635352  0.59278376  0.74528676    -0.17800
C193        C  0.07944853  0.38495780  0.75855380    -0.17800
C194        C  0.87349244  0.39896690  0.75098954    -0.17800
C195        C  0.88034447  0.60109457  0.73269259    -0.17800
H196        H  0.18793803  0.54225064  0.78718929     0.15100
H197        H  0.18439543  0.43299276  0.79478592     0.15100
H198        H  0.78278072  0.56445632  0.78392527     0.15100
H199        H  0.77975395  0.45602560  0.79567003     0.15100
H200        H  0.04234566  0.69325349  0.69824531     0.13400
H201        H  0.93338670  0.69537131  0.68803992     0.13400
H202        H  0.02583754  0.28569626  0.71896230     0.13400
H203        H  0.91643042  0.29395214  0.71172235     0.13400
H204        H  0.02732887  0.48970683  0.73051407     0.26600
H205        H  0.92929362  0.49445541  0.71779224     0.26600
C206        C  0.76421817  0.22067981  0.78897355     0.30500
C207        C  0.68806125  0.28364221  0.73267505     0.30500
C208        C  0.71093386  0.23513260  0.82295119    -0.05700
C209        C  0.78281731  0.27981371  0.77167031    -0.06500
C210        C  0.73716142  0.19329018  0.73586322    -0.06400
C211        C  0.67401642  0.27001544  0.79371974    -0.05700
C212        C  0.74566258  0.31202818  0.74200011    -0.06500
C213        C  0.70113098  0.22662708  0.70563148    -0.06400
C214        C  0.63011958  0.28260298  0.82734828    -0.31800
N215        N  0.63317249  0.25144249  0.87318796     0.14700
C216        C  0.68165380  0.22128009  0.87074125    -0.31800
H217        H  0.69193151  0.18894092  0.89973390     0.16700
C218        C  0.77404909  0.36210074  0.73282121    -0.30700
N219        N  0.82770274  0.35902669  0.75373713     0.13500
C220        C  0.83155856  0.31024208  0.77993520    -0.30700
C221        C  0.68904535  0.19895517  0.65514253    -0.31000
N222        N  0.71550786  0.14838837  0.65474847     0.14000
H223        H  0.66418955  0.21539168  0.62061337     0.16600
C224        C  0.74247243  0.14366081  0.70552174    -0.31000
H225        H  0.76933653  0.10908254  0.71728705     0.16600
H226        H  0.86813707  0.29844263  0.80373867     0.16600
H227        H  0.59787719  0.31292997  0.81999902     0.16700
H228        H  0.75685913  0.39904557  0.71389813     0.16600
N229        N  0.51097941  0.72628798  0.08022813    -0.36100
N230        N  0.59577395  0.74593916  0.99865985    -0.56700
N231        N  0.50874322  0.73306096  0.90761648    -0.36100
N232        N  0.42354441  0.72486052  0.98996126    -0.56700
C233        C  0.55626798  0.74145174  0.11275812     0.27500
C234        C  0.46475034  0.74099162  0.10788289     0.27500
C235        C  0.55078479  0.75704594  0.88074646     0.27500
C236        C  0.46134640  0.73690636  0.87452725     0.27500
C237        C  0.62852188  0.72960310  0.04327430     0.36100
C238        C  0.62746923  0.74338017  0.95307301     0.36100
C239        C  0.39257725  0.71491242  0.03474495     0.36100
C240        C  0.39318822  0.70846111  0.94350211     0.36100
C241        C  0.53863587  0.76755161  0.16045175    -0.21400
C242        C  0.48125635  0.76727819  0.15749226    -0.21400
C243        C  0.52891201  0.77721236  0.83060531    -0.21400
C244        C  0.47332311  0.76374711  0.82630599    -0.21400
C245        C  0.68074387  0.71556675  0.02513885    -0.22500
C246        C  0.68033515  0.72514487  0.96880047    -0.22500
C247        C  0.34254281  0.69176823  0.01659018    -0.22500
C248        C  0.34308158  0.68730663  0.95935301    -0.22500
C249        C  0.61306558  0.73191672  0.10049162    -0.17800
C250        C  0.40827659  0.72820508  0.09154815    -0.17800
C251        C  0.40730202  0.71763246  0.88692342    -0.17800
C252        C  0.60918030  0.75625519  0.89727159    -0.17800
H253        H  0.56447999  0.78590322  0.19360734     0.15100
H254        H  0.45470990  0.78471388  0.18853933     0.15100
H255        H  0.55079009  0.79921039  0.79975802     0.15100
H256        H  0.44475766  0.77383777  0.79201025     0.15100
H257        H  0.71578988  0.69963230  0.04971135     0.13400
H258        H  0.71469423  0.71754035  0.94224558     0.13400
H259        H  0.30916719  0.67896146  0.04186667     0.13400
H260        H  0.30982957  0.67090879  0.93243663     0.13400
H261        H  0.51194173  0.70241008  0.04374832     0.26600
H262        H  0.51309543  0.71071960  0.94415511     0.26600
N263        N  0.48844016  0.26474594  0.09504185    -0.36100
N264        N  0.57401810  0.26499702  0.01545136    -0.56700
N265        N  0.48783308  0.26495261  0.92264471    -0.36100
N266        N  0.40202546  0.25340681  0.00184836    -0.56700
C267        C  0.53562300  0.25901155  0.12826843     0.27500
C268        C  0.44658324  0.23736785  0.11888390     0.27500
C269        C  0.53344008  0.24337013  0.89807442     0.27500
C270        C  0.44202013  0.25295946  0.88924749     0.27500
C271        C  0.60394521  0.28541726  0.06046875     0.36100
C272        C  0.60571451  0.27039600  0.97059441     0.36100
C273        C  0.37033600  0.25622774  0.04737078     0.36100
C274        C  0.37013892  0.27145022  0.95728284     0.36100
C275        C  0.52393052  0.22724160  0.17336109    -0.21400
C276        C  0.46869525  0.21238617  0.16675439    -0.21400
C277        C  0.51581887  0.21552945  0.84975676    -0.21400
C278        C  0.45853540  0.22188143  0.84385881    -0.21400
C279        C  0.65429189  0.30485539  0.04346099    -0.22500
C280        C  0.65570955  0.29460556  0.98698255    -0.22500
C281        C  0.31820042  0.27676920  0.03171097    -0.22500
C282        C  0.31827603  0.28692323  0.97532744    -0.22500
C283        C  0.58953545  0.27945152  0.11716192    -0.17800
C284        C  0.38807177  0.24014157  0.10255951    -0.17800
C285        C  0.38576683  0.26825007  0.90009165    -0.17800
C286        C  0.59066980  0.25253697  0.91529631    -0.17800
H287        H  0.55261539  0.21454518  0.20664386     0.15100
H288        H  0.44695807  0.18677876  0.19498151     0.15100
H289        H  0.54181913  0.19251497  0.82199767     0.15100
H290        H  0.43207343  0.20496012  0.81038200     0.15100
H291        H  0.68734764  0.32321538  0.06925375     0.13400
H292        H  0.68958058  0.30423342  0.96091515     0.13400
H293        H  0.28387656  0.28486914  0.05818535     0.13400
H294        H  0.28366319  0.30333493  0.95043046     0.13400
H295        H  0.48406551  0.29031373  0.06062926     0.26600
H296        H  0.48821659  0.29105854  0.95768005     0.26600
C297        C  0.70019440  0.72999696  0.70982157     0.30500
C298        C  0.78035907  0.78755045  0.76736169     0.30500
C299        C  0.68735193  0.74773496  0.77036389    -0.05700
C300        C  0.75692725  0.69691283  0.71912234    -0.06500
C301        C  0.72032716  0.78312626  0.68181375    -0.06400
C302        C  0.72634555  0.77842165  0.80137019    -0.05700
C303        C  0.79616138  0.72730125  0.75058978    -0.06500
C304        C  0.75617269  0.81438440  0.71388808    -0.06400
C305        C  0.70028848  0.78746610  0.85313738    -0.31800
N306        N  0.65009507  0.76096837  0.85358020     0.14700
C307        C  0.64328408  0.73663061  0.80323364    -0.31800
H308        H  0.60771126  0.71197177  0.79180360     0.16700
C309        C  0.84374937  0.69528185  0.75880899    -0.30700
N310        N  0.83802853  0.64607404  0.73102082     0.13500
C311        C  0.78501092  0.64645443  0.70658187    -0.30700
C312        C  0.76522916  0.86335566  0.68584998    -0.31000
N313        N  0.73855857  0.86117194  0.63524676     0.14000
H314        H  0.79102746  0.89760031  0.70056714     0.16600
C315        C  0.71161667  0.81149972  0.63170561    -0.31000
H316        H  0.68498339  0.79842791  0.59675513     0.16600
H317        H  0.76783768  0.61243355  0.68156710     0.16600
H318        H  0.71479901  0.81215073  0.88811062     0.16700
H319        H  0.88054887  0.70765533  0.78307432     0.16600
C320        C  0.72552502  0.30672578  0.29728565     0.30500
C321        C  0.76933394  0.23043475  0.22807510     0.30500
C322        C  0.68877159  0.29596091  0.24158367    -0.05700
C323        C  0.78241760  0.32164978  0.27391093    -0.06500
C324        C  0.73147235  0.24658878  0.31988052    -0.06400
C325        C  0.71472360  0.25860701  0.20594915    -0.05700
C326        C  0.80695226  0.28308856  0.23939540    -0.06500
C327        C  0.75646190  0.20965749  0.28589558    -0.06400
C328        C  0.68294818  0.25352392  0.15700190    -0.31800
N329        N  0.63428407  0.28135330  0.16127564     0.14700
C330        C  0.63680875  0.30711338  0.21310182    -0.31800
H331        H  0.60291710  0.33119822  0.22935843     0.16700
C332        C  0.85728476  0.30848485  0.22515711    -0.30700
N333        N  0.86275536  0.36045159  0.25047172     0.13500
C334        C  0.81624268  0.36813023  0.27941892    -0.30700
C335        C  0.76203691  0.15934887  0.31356303    -0.31000
N336        N  0.73882490  0.16330285  0.36394654     0.14000
H337        H  0.78223520  0.12235170  0.29772008     0.16600
C338        C  0.71883132  0.21696413  0.36747271    -0.31000
H339        H  0.69679665  0.23400663  0.40211934     0.16600
H340        H  0.80784999  0.40485093  0.30448109     0.16600
H341        H  0.69331820  0.22801508  0.12139952     0.16700
H342        H  0.88736573  0.29035130  0.19799278     0.16600
C343        C  0.25838240  0.27794759  0.71092411     0.30500
C344        C  0.21375791  0.20628936  0.78182850     0.30500
C345        C  0.29237128  0.27263418  0.76934690    -0.05700
C346        C  0.19991992  0.29393769  0.73055215    -0.06500
C347        C  0.25405935  0.21650894  0.69035038    -0.06400
C348        C  0.26671480  0.23694255  0.80472263    -0.05700
C349        C  0.17510289  0.25833754  0.76633646    -0.06500
C350        C  0.23025520  0.18079137  0.72548281    -0.06400
C351        C  0.29519768  0.23825077  0.85617586    -0.31800
N352        N  0.34206742  0.26795377  0.85439866     0.14700
C353        C  0.33996604  0.29112797  0.80221007    -0.31800
H354        H  0.37004034  0.32067890  0.78991056     0.16700
C355        C  0.12619436  0.28798618  0.78161184    -0.30700
N356        N  0.12208505  0.33935055  0.75598593     0.13500
C357        C  0.16785972  0.34217832  0.72545647    -0.30700
C358        C  0.22691272  0.12892978  0.69807729    -0.31000
N359        N  0.24904952  0.13149656  0.64683834     0.14000
H360        H  0.20809236  0.09229481  0.71416174     0.16600
C361        C  0.26732236  0.18518282  0.64312223    -0.31000
H362        H  0.28838491  0.20128816  0.60822103     0.16600
H363        H  0.17801632  0.37769030  0.70101708     0.16600
H364        H  0.28359066  0.21713822  0.89287916     0.16700
H365        H  0.09719627  0.27380218  0.81113656     0.16600
C366        C  0.31003080  0.70179470  0.27918253     0.30500
C367        C  0.23712798  0.75796573  0.21240891     0.30500
C368        C  0.32860804  0.71492386  0.21885928    -0.05700
C369        C  0.25243045  0.67269050  0.26828472    -0.06500
C370        C  0.29082663  0.75916707  0.30341435    -0.06400
C371        C  0.29176950  0.74377843  0.18586497    -0.05700
C372        C  0.21601883  0.70211822  0.23346545    -0.06500
C373        C  0.25335527  0.78828467  0.26902989    -0.06400
C374        C  0.31528002  0.75152510  0.13440127    -0.31800
N375        N  0.36674774  0.72751388  0.13481748     0.14700
C376        C  0.37441039  0.70461788  0.18591054    -0.31800
H377        H  0.41149467  0.68208961  0.19740576     0.16700
C378        C  0.16386250  0.67856232  0.23527977    -0.30700
N379        N  0.16613168  0.63474899  0.26952220     0.13500
C380        C  0.21873021  0.63357546  0.29307465    -0.30700
C381        C  0.23313344  0.83268445  0.30120438    -0.31000
N382        N  0.25737302  0.83213338  0.35370521     0.14000
H383        H  0.20207989  0.86282541  0.28748994     0.16600
C384        C  0.29024035  0.78547231  0.35589900    -0.31000
H385        H  0.31262258  0.77154322  0.39308183     0.16600
H386        H  0.22955527  0.60835824  0.32825694     0.16600
H387        H  0.29635888  0.77375140  0.09969510     0.16700
H388        H  0.12626280  0.69262564  0.21365216     0.16600
C389        C  0.04873296  0.85569158  0.11351461     0.42900
N390        N  0.01558328  0.90061946  0.04399711     0.01800
C391        C  0.10229065  0.15692940  0.98914331    -0.06000
H392        H  0.95465693  0.15254481  0.15632178     0.07300
C393        C  0.82499365  0.07210151  0.02660457    -0.06400
Co394      Co  0.06826026  0.00753919  0.05764599     0.74200
N395        N  0.99690291  0.09441888  0.10501473    -0.25600
Co396      Co  0.98671334  0.12016152  0.02514228     0.74100
C397        C  0.82994772  0.10577134  0.07723457     0.43000
N398        N  0.88018707  0.95851192  0.97117763     0.01400
N399        N  0.90311334  0.11467610  0.03193591     0.01600
N400        N  0.15186745  0.07989258  0.00850788    -0.46400
H401        H  0.06021875  0.93335406  0.16637637     0.07300
N402        N  0.02644593  0.05015809  0.11687837     0.01800
N403        N  0.97418609  0.13857866  0.94341049     0.01600
C404        C  0.97424674  0.17348785  0.86229185     0.43200
N405        N  0.91443178  0.91565322  0.97467059    -0.25000
C406        C  0.16060685  0.95914731  0.98032272    -0.06000
N407        N  0.02545007  0.84980621  0.06159738    -0.46100
N408        N  0.99361856  0.18031631  0.91544254    -0.46400
C409        C  0.15828024  0.92875856  0.92730380     0.43000
N410        N  0.10315478  0.07912167  0.03122477     0.01800
N411        N  0.97888298  0.95060761  0.88453665    -0.25100
N412        N  0.03082870  0.93770909  0.08179777    -0.25500
N413        N  0.94599281  0.99332614  0.87623643     0.01500
H414        H  0.00124750  0.88247826  0.83224224     0.07400
H415        H  0.92592023  0.09968097  0.82514955     0.07400
N416        N  0.07232623  0.12296318  0.01892437    -0.25600
N417        N  0.87338123  0.07846205  0.00248653    -0.25200
N418        N  0.07689553  0.93904950  0.95490018     0.01800
C419        C  0.02181531  0.09374014  0.19444197     0.43200
C420        C  0.89261343  0.87606823  0.00430887    -0.06500
N421        N  0.94524752  0.10377460  0.91165720    -0.25200
H422        H  0.79300371  0.04296442  0.01387224     0.07400
N423        N  0.03429696  0.04424762  0.17058772    -0.46400
H424        H  0.91569795  0.84099749  0.02123036     0.07400
C425        C  0.94429596  0.95171230  0.79786334     0.43100
C426        C  0.04183556  0.91293472  0.12978878    -0.06000
Co427      Co  0.99663752  0.92506914  0.96361785     0.73800
N428        N  0.83595329  0.95090194  0.00069528    -0.46100
C429        C  0.15325960  0.12594049  0.97808867     0.43300
N430        N  0.10499287  0.91878585  0.91402160    -0.46100
Co431      Co  0.90881302  0.03380762  0.93954265     0.73900
C432        C  0.94962143  0.11829765  0.85956660    -0.06500
C433        C  0.98313872  0.11808508  0.15269718    -0.06000
N434        N  0.10742376  0.96426393  0.99390098    -0.25600
N435        N  0.87807854  0.13304299  0.07587040    -0.46300
H436        H  0.08594732  0.19259393  0.96705481     0.07300
C437        C  0.98481253  0.92438528  0.83597931    -0.06400
Cl438      Cl  0.98996479  0.02177596  0.99648358    -0.49400
C439        C  0.84155999  0.90020166  0.02387526     0.43100
H440        H  0.19641506  0.97380815  0.00468442     0.07300
N441        N  0.92949718  0.99857098  0.82393257    -0.46200
C442        C  0.66943004  0.40301543  0.49821663     0.42900
N443        N  0.61017282  0.45018353  0.54332092     0.01800
C444        C  0.33369237  0.43301690  0.48738337    -0.06000
H445        H  0.47100147  0.42546397  0.31482648     0.07300
C446        C  0.53160633  0.59735035  0.34608630    -0.06400
Co447      Co  0.49987231  0.40256066  0.51826144     0.74200
N448        N  0.47905877  0.42056472  0.40102781    -0.25600
Co449      Co  0.43149337  0.48750994  0.42443967     0.74100
C450        C  0.49835595  0.57647257  0.29762964     0.43000
N451        N  0.58804474  0.59524331  0.47826614     0.01400
N452        N  0.47765782  0.53325247  0.37116495     0.01600
N453        N  0.38391987  0.37202829  0.53895569    -0.46400
H454        H  0.60775902  0.33409923  0.47772068     0.07300
N455        N  0.50229181  0.38495589  0.43530284     0.01800
N456        N  0.39138873  0.55966587  0.45278242     0.01600
C457        C  0.34132715  0.62122422  0.49555901     0.43200
N458        N  0.61390489  0.56780763  0.51825559    -0.25000
C459        C  0.48774167  0.39466698  0.64280849    -0.06000
N460        N  0.66114141  0.45140397  0.52563318    -0.46100
N461        N  0.34283862  0.56757640  0.47581792    -0.46400
C462        C  0.51324663  0.42541891  0.69068703     0.43000
N463        N  0.41571094  0.40253946  0.50931792     0.01800
N464        N  0.51486945  0.58464644  0.58730904    -0.25100
N465        N  0.58442790  0.40426055  0.52738964    -0.25500
N466        N  0.50138046  0.62285768  0.55152180     0.01500
H467        H  0.49627935  0.57367978  0.67115450     0.07400
H468        H  0.41427676  0.68184340  0.49300214     0.07400
N469        N  0.38793565  0.43808916  0.47775916    -0.25600
N470        N  0.50978893  0.57355085  0.38919681    -0.25200
N471        N  0.51744314  0.47305327  0.61773162     0.01800
C472        C  0.50336912  0.34455386  0.35502621     0.43200
C473        C  0.66909140  0.57139516  0.51092586    -0.06500
N474        N  0.42175319  0.60428983  0.45767602    -0.25200
H475        H  0.55733874  0.63360637  0.35010019     0.07400
N476        N  0.52010355  0.33984981  0.40924861    -0.46400
H477        H  0.70191173  0.55239244  0.53628227     0.07400
C478        C  0.48561492  0.65861411  0.63191294     0.43100
C479        C  0.61969668  0.37036981  0.50239963    -0.06000
Co480      Co  0.56550259  0.51935752  0.56861362     0.73800
N481        N  0.62083869  0.61531600  0.44221778    -0.46100
C482        C  0.33141036  0.38953278  0.52925339     0.43300
N483        N  0.52196635  0.47638150  0.67223286    -0.46100
Co484      Co  0.50570896  0.60042821  0.46863492     0.73900
C485        C  0.39271742  0.64562498  0.47791420    -0.06500
C486        C  0.48852777  0.40374762  0.35011933    -0.06000
N487        N  0.49616629  0.42601369  0.59950395    -0.25600
N488        N  0.47532350  0.52972973  0.31661935    -0.46300
H489        H  0.30029610  0.45740162  0.46848983     0.07300
C490        C  0.49346265  0.59882717  0.63504011    -0.06400
Cl491      Cl  0.50056673  0.50226546  0.49493918    -0.49400
C492        C  0.67247900  0.60133052  0.45871726     0.43100
H493        H  0.48317975  0.35013516  0.63838221     0.07300
N494        N  0.48118417  0.66770468  0.57627570    -0.46200
C495        C  0.15177298  0.86676783  0.13843426    -0.01400
C496        C  0.10418223  0.83255607  0.12505113     0.08300
C497        C  0.11163702  0.77492238  0.11989132    -0.01500
C498        C  0.16294154  0.75264997  0.13574949    -0.01500
C499        C  0.19829969  0.78501315  0.17134594     0.08400
C500        C  0.19840385  0.84241265  0.16427074    -0.01700
Br501      Br  0.26426896  0.88578593  0.18276149    -0.00200
Br502      Br  0.15943220  0.94411097  0.11870199    -0.00300
Br503      Br  0.18552635  0.68135862  0.10523704    -0.00300
Br504      Br  0.05247146  0.72606093  0.09440074    -0.00200
C505        C  0.36004308  0.61366911  0.29124122    -0.01400
C506        C  0.35801048  0.67024555  0.30772913     0.08300
C507        C  0.40999498  0.69868749  0.31210142    -0.01500
C508        C  0.45830052  0.67217926  0.29337818    -0.01500
C509        C  0.45660870  0.61654644  0.27374554     0.08400
C510        C  0.40396850  0.59427556  0.26070826    -0.01700
Br511      Br  0.39517085  0.52773185  0.21563220    -0.00200
Br512      Br  0.32501861  0.55806827  0.33307396    -0.00300
Br513      Br  0.52431750  0.71416606  0.28345145    -0.00300
Br514      Br  0.41678897  0.77585350  0.33477218    -0.00200
C515        C  0.31694390  0.34964332  0.66515458    -0.01400
C516        C  0.27050978  0.31586446  0.66264143     0.08300
C517        C  0.23353551  0.31909275  0.61402635    -0.01500
C518        C  0.24787949  0.35212093  0.56913123    -0.01500
C519        C  0.29384244  0.38679057  0.57533305     0.08400
C520        C  0.31924972  0.39355541  0.62844356    -0.01700
Br521      Br  0.37009424  0.45318548  0.64337844    -0.00200
Br522      Br  0.38525258  0.31190926  0.67995028    -0.00300
Br523      Br  0.20688952  0.34944036  0.49864483    -0.00300
Br524      Br  0.16556666  0.27704390  0.60477955    -0.00200
C525        C  0.23974686  0.13171029  0.85366607    -0.01400
C526        C  0.19849024  0.16055053  0.82097569     0.08300
C527        C  0.14450336  0.14177987  0.82555451    -0.01500
C528        C  0.13125679  0.11833270  0.87610936    -0.01500
C529        C  0.17086580  0.12101086  0.92080180     0.08400
C530        C  0.22679277  0.11895270  0.90805076    -0.01700
Br531      Br  0.28374557  0.10182562  0.96358422    -0.00200
Br532      Br  0.31182340  0.11236955  0.82620170    -0.00300
Br533      Br  0.07277783  0.06566767  0.87935609    -0.00300
Br534      Br  0.09998145  0.12959057  0.75920246    -0.00200
C535        C  0.84566543  0.10271166  0.17657044    -0.01400
C536        C  0.81021920  0.08868103  0.13065959     0.08300
C537        C  0.75441760  0.10025007  0.13672484    -0.01500
C538        C  0.74091866  0.14260658  0.17402706    -0.01500
C539        C  0.78438679  0.17933126  0.19492981     0.08400
C540        C  0.83732203  0.15416640  0.20281723    -0.01700
Br541      Br  0.89132845  0.17911978  0.25918732    -0.00200
Br542      Br  0.88481938  0.04549146  0.21630579    -0.00300
Br543      Br  0.66800273  0.13754302  0.20462472    -0.00300
Br544      Br  0.69856347  0.06796313  0.08710386    -0.00200
C545        C  0.66669311  0.41582383  0.39653686    -0.01400
C546        C  0.69634418  0.40054176  0.44574411     0.08300
C547        C  0.74445693  0.36874608  0.44335265    -0.01500
C548        C  0.75637466  0.34183979  0.39367499    -0.01500
C549        C  0.71804104  0.34629781  0.34620563     0.08400
C550        C  0.67944630  0.39040275  0.34585412    -0.01700
Br551      Br  0.65480382  0.42505699  0.27775798    -0.00200
Br552      Br  0.60989175  0.47225045  0.39858357    -0.00300
Br553      Br  0.82592106  0.29945163  0.39413644    -0.00300
Br554      Br  0.79163890  0.35946960  0.50951352    -0.00200
C555        C  0.60469087  0.75282158  0.66614394    -0.01400
C556        C  0.64456998  0.71066931  0.68399720     0.08300
C557        C  0.62143836  0.66075310  0.70279921    -0.01500
C558        C  0.56342887  0.65753251  0.70389379    -0.01500
C559        C  0.53021034  0.68800681  0.66493162     0.08400
C560        C  0.55228168  0.73720914  0.64567920    -0.01700
Br561      Br  0.50977801  0.78797798  0.59900916    -0.00200
Br562      Br  0.60450432  0.82912589  0.69489915    -0.00300
Br563      Br  0.52920906  0.62166354  0.76482031    -0.00300
Br564      Br  0.66444982  0.60703011  0.74514574    -0.00200
C565        C  0.82990061  0.85968009  0.82452026    -0.01400
C566        C  0.83224601  0.82025881  0.78216130     0.08300
C567        C  0.87324112  0.82675698  0.74065273    -0.01500
C568        C  0.90908305  0.87193478  0.74433929    -0.01500
C569        C  0.89853532  0.91499591  0.78180200     0.08400
C570        C  0.85366029  0.91087892  0.81767649    -0.01700
Br571      Br  0.81685908  0.97344966  0.85232363    -0.00200
Br572      Br  0.81700690  0.83787658  0.89812161    -0.00300
Br573      Br  0.96957472  0.87869907  0.69482911    -0.00300
Br574      Br  0.87372224  0.78602377  0.67027916    -0.00200
C575        C  0.89104059  0.22602304  0.87556193    -0.01400
C576        C  0.93287022  0.21184122  0.83894979     0.08300
C577        C  0.91766208  0.19923451  0.78344157    -0.01500
C578        C  0.86197186  0.19140153  0.76723347    -0.01500
C579        C  0.81938694  0.19439804  0.80829034     0.08400
C580        C  0.83765039  0.20587468  0.86395702    -0.01700
Br581      Br  0.79722631  0.18503644  0.92655514    -0.00200
Br582      Br  0.90836236  0.26478542  0.94502011    -0.00300
Br583      Br  0.85020371  0.19604431  0.68673518    -0.00300
Br584      Br  0.97423868  0.17863429  0.73274216    -0.00200
C585        C  0.58689499  0.29902797  0.71378510    -0.01400
C586        C  0.64134068  0.31268579  0.70171671     0.08300
C587        C  0.65115498  0.36408652  0.68000277    -0.01500
C588        C  0.61473320  0.40772597  0.69015332    -0.01500
C589        C  0.56244298  0.39607018  0.71277852     0.08400
C590        C  0.55145825  0.34209587  0.72890307    -0.01700
Br591      Br  0.48894504  0.32995266  0.77294388    -0.00200
Br592      Br  0.56338629  0.22291836  0.71405101    -0.00300
Br593      Br  0.64083666  0.48125663  0.67502843    -0.00300
Br594      Br  0.70258188  0.36684492  0.62193420    -0.00200
C595        C  0.24073105  0.85723081  0.82804675    -0.01400
C596        C  0.21031497  0.80590080  0.82730354     0.08300
C597        C  0.18840639  0.79056724  0.87843225    -0.01500
C598        C  0.18288292  0.83113617  0.92030177    -0.01500
C599        C  0.19674745  0.88658999  0.91033069     0.08400
C600        C  0.22847697  0.89913257  0.86597643    -0.01700
Br601      Br  0.25159335  0.97456526  0.85527758    -0.00200
Br602      Br  0.31013894  0.86719243  0.79169613    -0.00300
Br603      Br  0.15078563  0.81309172  0.98932181    -0.00300
Br604      Br  0.17583861  0.71431589  0.89759211    -0.00200
C605        C  0.34205502  0.69575160  0.63399890    -0.01400
C606        C  0.30557102  0.66427555  0.66446972     0.08300
C607        C  0.29045633  0.61172421  0.64337993    -0.01500
C608        C  0.29614891  0.59896379  0.58654412    -0.01500
C609        C  0.32216661  0.63733817  0.55198649     0.08400
C610        C  0.34116423  0.68836876  0.57641581    -0.01700
Br611      Br  0.35132379  0.75498852  0.53303981    -0.00200
Br612      Br  0.38420908  0.75628247  0.66861393    -0.00300
Br613      Br  0.25932908  0.53369299  0.55693415    -0.00300
Br614      Br  0.28207238  0.55288408  0.69552045    -0.00200
C615        C  0.72716932  0.59876068  0.37910640    -0.01400
C616        C  0.71739986  0.62621336  0.42994334     0.08300
C617        C  0.70993641  0.68417259  0.42972414    -0.01500
C618        C  0.69233138  0.70840704  0.37969788    -0.01500
C619        C  0.70880641  0.68481308  0.32963341     0.08400
C620        C  0.71811728  0.62691875  0.32862859    -0.01700
Br621      Br  0.71132617  0.58616518  0.25929437    -0.00200
Br622      Br  0.75036088  0.52234164  0.37952445    -0.00300
Br623      Br  0.62903522  0.75815469  0.37803054    -0.00300
Br624      Br  0.69929294  0.72379760  0.49859208    -0.00200
C625        C  0.85998232  0.84768484  0.16713964    -0.01400
C626        C  0.80498092  0.83314535  0.17633773     0.08300
C627        C  0.76266379  0.86712927  0.14945862    -0.01500
C628        C  0.77229894  0.88792585  0.09689427    -0.01500
C629        C  0.82679715  0.88981990  0.08107801     0.08400
C630        C  0.86896680  0.88186441  0.12197954    -0.01700
Br631      Br  0.91892204  0.94168513  0.13048891    -0.00200
Br632      Br  0.91957258  0.83363769  0.22083354    -0.00300
Br633      Br  0.71254525  0.91184990  0.04720692    -0.00300
Br634      Br  0.69265108  0.88559197  0.18195898    -0.00200
C635        C  0.36955392  0.27623322  0.36828561    -0.01400
C636        C  0.34036234  0.29711794  0.32133918     0.08300
C637        C  0.36788923  0.33547522  0.28915593    -0.01500
C638        C  0.42571572  0.33192548  0.28771614    -0.01500
C639        C  0.45643381  0.30951365  0.33325895     0.08400
C640        C  0.42778465  0.27726408  0.37131972    -0.01700
Br641      Br  0.46671989  0.23281834  0.42676790    -0.00200
Br642      Br  0.33144495  0.27227400  0.43673193    -0.00300
Br643      Br  0.46376481  0.36060504  0.22498533    -0.00300
Br644      Br  0.32732340  0.38394810  0.23888732    -0.00200
C645        C  0.17392152  0.11450535  0.20068804    -0.01400
C646        C  0.17814035  0.17103175  0.19063454     0.08300
C647        C  0.13109407  0.19781506  0.16896330    -0.01500
C648        C  0.07905789  0.18051360  0.18462589    -0.01500
C649        C  0.07358350  0.12618149  0.20710480     0.08400
C650        C  0.12322946  0.09403442  0.21692358    -0.01700
Br651      Br  0.12325624  0.02146306  0.25118306    -0.00200
Br652      Br  0.23861895  0.06740562  0.19362791    -0.00300
Br653      Br  0.01987472  0.23551337  0.17917711    -0.00300
Br654      Br  0.13981844  0.25616399  0.11632945    -0.00200
loop_ 
_geom_bond_atom_site_label_1 
_geom_bond_atom_site_label_2 
_geom_bond_distance 
_geom_bond_site_symmetry_2 
_ccdc_geom_bond_type 
C1            C3   1.547       .  S
C1            C5   1.574       .  S
C1            C4   1.566       .  S
C1          C646   1.519       .  S
C2            C6   1.562       .  S
C2            C8   1.563       .  S
C2            C7   1.569       .  S
C2          C636   1.532       .  S
C3           C11   1.415       .  A
C3            C6   1.370       .  A
C4           C15   1.397       .  A
C4            C7   1.386       .  A
C5           C19   1.402       .  A
C5            C8   1.387       .  A
C6            C9   1.384       .  A
C7           C13   1.411       .  A
C8           C16   1.405       .  A
C9           N10   1.351       .  A
C9           H22   1.057       .  S
N10          C11   1.375       .  A
N10         C284   1.483       .  S
C11          H12   1.082       .  S
C13          N14   1.377       .  A
C13          H23   1.082       .  S
N14          C15   1.357       .  A
N14          C44   1.487       .  S
C15          H21   1.067       .  S
C16          N17   1.360       .  A
C16          H18   1.075       .  S
N17          C19   1.354       .  A
N17         C101   1.467       .  S
C19          H20   1.073       .  S
N24          C29   1.368   1_455  A
N24          C28   1.371       .  A
N24          H56   1.044       .  S
N25          C32   1.366       .  A
N25          C33   1.363       .  A
N26          C31   1.367   1_455  A
N26          C30   1.361       .  A
N26          H57   1.044       .  S
N27          C34   1.372       .  A
N27          C35   1.375       .  A
C28          C36   1.387       .  A
C28          C44   1.448       .  A
C29          C45   1.444       .  A
C29          C37   1.387       .  A
C30          C38   1.388       .  A
C30          C47   1.437       .  A
C31          C46   1.436       .  A
C31          C39   1.386       .  A
C32          C44   1.429       .  A
C32          C40   1.382       .  A
C33          C47   1.432       .  A
C33          C41   1.386       .  A
C34          C42   1.388       .  A
C34          C45   1.455       .  A
C35          C43   1.382       .  A
C35          C46   1.453       .  A
C36          C37   1.386   1_455  A
C36          H48   1.082       .  S
C37          H49   1.082       .  S
C38          C39   1.384   1_455  A
C38          H50   1.082       .  S
C39          H51   1.082       .  S
C40          C41   1.373       .  A
C40          H52   1.079       .  S
C41          H53   1.081       .  S
C42          C43   1.384       .  A
C42          H54   1.082       .  S
C43          H55   1.080       .  S
C45         N333   1.488       .  S
C46          N71   1.492       .  S
C47         N379   1.468       .  S
C58          C60   1.550       .  S
C58          C62   1.547       .  S
C58          C61   1.594       .  S
C58         C626   1.528       .  S
C59          C63   1.569       .  S
C59          C65   1.573       .  S
C59          C64   1.571       .  S
C59         C619   1.534       .  S
C60          C68   1.389       .  A
C60          C63   1.376       .  A
C61          C72   1.425       .  A
C61          C64   1.400       .  A
C62          C76   1.408       .  A
C62          C65   1.373       .  A
C63          C66   1.418       .  A
C64          C70   1.400       .  A
C65          C73   1.403       .  A
C66          N67   1.382       .  A
C66          H79   1.081       .  S
N67          C68   1.353       .  A
N67         C249   1.485       .  S
C68          H69   1.079       .  S
C70          N71   1.358       .  A
C70          H80   1.079       .  S
N71          C72   1.384       .  A
C72          H78   1.081       .  S
C73          N74   1.361       .  A
C73          H75   1.072       .  S
N74          C76   1.367       .  A
N74         C135   1.483       .  S
C76          H77   1.082       .  S
N81          C86   1.364       .  A
N81          C85   1.363   1_565  A
N81         H113   1.040       .  S
N82          C89   1.363       .  A
N82          C90   1.364       .  A
N83          C88   1.369       .  A
N83          C87   1.372   1_565  A
N83         H114   1.042       .  S
N84          C91   1.369       .  A
N84          C92   1.366       .  A
C85          C93   1.384       .  A
C85         C101   1.430       .  A
C86         C102   1.435       .  A
C86          C94   1.387       .  A
C87          C95   1.383       .  A
C87         C104   1.443       .  A
C88         C103   1.447       .  A
C88          C96   1.383       .  A
C89         C101   1.425       .  A
C89          C97   1.381       .  A
C90         C104   1.435       .  A
C90          C98   1.385       .  A
C91          C99   1.382       .  A
C91         C102   1.439       .  A
C92         C100   1.389       .  A
C92         C103   1.446       .  A
C93          C94   1.383   1_545  A
C93         H105   1.082       .  S
C94         H106   1.081       .  S
C95          C96   1.383   1_545  A
C95         H107   1.082       .  S
C96         H108   1.070       .  S
C97          C98   1.372       .  A
C97         H109   1.082       .  S
C98         H110   1.073       .  S
C99         C100   1.383       .  A
C99         H111   1.082       .  S
C100        H112   1.082       .  S
C102        N382   1.480       .  S
C103        N158   1.492       .  S
C104        N359   1.489       .  S
N115        C120   1.366       .  A
N115        C119   1.371   1_545  A
N115        H147   1.042       .  S
N116        C123   1.360       .  A
N116        C124   1.360       .  A
N117        C122   1.361       .  A
N117        C121   1.360   1_545  A
N117        H148   1.040       .  S
N118        C125   1.363       .  A
N118        C126   1.366       .  A
C119        C127   1.384       .  A
C119        C135   1.441       .  A
C120        C136   1.447       .  A
C120        C128   1.388       .  A
C121        C129   1.386       .  A
C121        C138   1.427       .  A
C122        C137   1.427       .  A
C122        C130   1.385       .  A
C123        C135   1.433       .  A
C123        C131   1.388       .  A
C124        C138   1.423       .  A
C124        C132   1.383       .  A
C125        C133   1.388       .  A
C125        C136   1.437       .  A
C126        C134   1.384       .  A
C126        C137   1.434       .  A
C127        C128   1.385   1_565  A
C127        H139   1.081       .  S
C128        H140   1.079       .  S
C129        C130   1.380   1_565  A
C129        H141   1.082       .  S
C130        H142   1.082       .  S
C131        C132   1.379       .  A
C131        H143   1.082       .  S
C132        H144   1.082       .  S
C133        C134   1.379       .  A
C133        H145   1.078       .  S
C134        H146   1.082       .  S
C136        N336   1.483       .  S
C137        N222   1.472       .  S
C138        N313   1.461       .  S
C149        C151   1.570       .  S
C149        C153   1.566       .  S
C149        C152   1.580       .  S
C149        C606   1.526       .  S
C150        C154   1.557       .  S
C150        C156   1.534       .  S
C150        C155   1.589       .  S
C150        C596   1.516       .  S
C151        C159   1.397       .  A
C151        C154   1.365       .  A
C152        C163   1.406       .  A
C152        C155   1.406       .  A
C153        C167   1.420       .  A
C153        C156   1.364       .  A
C154        C157   1.415       .  A
C155        C161   1.416       .  A
C156        C164   1.388       .  A
C157        N158   1.373       .  A
C157        H170   1.082       .  S
N158        C159   1.363       .  A
C159        H160   1.064       .  S
C161        N162   1.375       .  A
C161        H171   1.081       .  S
N162        C163   1.365       .  A
N162        C192   1.490       .  S
C163        H169   1.078       .  S
C164        N165   1.351       .  A
C164        H166   1.082       .  S
N165        C167   1.380       .  A
N165        C251   1.479       .  S
C167        H168   1.082       .  S
N172        C177   1.374       .  A
N172        C176   1.373       .  A
N172        H204   1.041       .  S
N173        C180   1.370   1_655  A
N173        C181   1.370       .  A
N174        C179   1.358       .  A
N174        C178   1.359       .  A
N174        H205   1.043       .  S
N175        C182   1.372   1_655  A
N175        C183   1.369       .  A
C176        C184   1.387       .  A
C176        C192   1.452       .  A
C177        C193   1.456       .  A
C177        C185   1.388       .  A
C178        C186   1.385       .  A
C178        C195   1.420       .  A
C179        C194   1.420       .  A
C179        C187   1.386       .  A
C180        C192   1.440       .  A
C180        C188   1.382       .  A
C181        C195   1.447       .  A
C181        C189   1.380       .  A
C182        C190   1.380       .  A
C182        C193   1.441       .  A
C183        C191   1.385       .  A
C183        C194   1.449       .  A
C184        C185   1.388       .  A
C184        H196   1.082       .  S
C185        H197   1.082       .  S
C186        C187   1.376       .  A
C186        H198   1.081       .  S
C187        H199   1.082       .  S
C188        C189   1.379   1_455  A
C188        H200   1.082       .  S
C189        H201   1.067       .  S
C190        C191   1.382   1_455  A
C190        H202   1.080       .  S
C191        H203   1.077       .  S
C193        N356   1.498       .  S
C194        N219   1.476       .  S
C195        N310   1.479       .  S
C206        C208   1.587       .  S
C206        C210   1.550       .  S
C206        C209   1.565       .  S
C206        C579   1.525       .  S
C207        C211   1.566       .  S
C207        C213   1.542       .  S
C207        C212   1.560       .  S
C207        C586   1.498       .  S
C208        C216   1.424       .  A
C208        C211   1.394       .  A
C209        C220   1.396       .  A
C209        C212   1.365       .  A
C210        C224   1.395       .  A
C210        C213   1.371       .  A
C211        C214   1.389       .  A
C212        C218   1.417       .  A
C213        C221   1.397       .  A
C214        N215   1.345       .  A
C214        H227   1.072       .  S
N215        C216   1.373       .  A
N215        C286   1.474       .  S
C216        H217   1.075       .  S
C218        N219   1.370       .  A
C218        H228   1.077       .  S
N219        C220   1.343       .  A
C220        H226   1.070       .  S
C221        N222   1.367       .  A
C221        H223   1.082       .  S
N222        C224   1.366       .  A
C224        H225   1.083       .  S
N229        C234   1.365       .  A
N229        C233   1.365       .  A
N229        H261   1.042       .  S
N230        C237   1.367   1_556  A
N230        C238   1.366       .  A
N231        C236   1.368       .  A
N231        C235   1.366       .  A
N231        H262   1.041       .  S
N232        C239   1.366   1_556  A
N232        C240   1.365       .  A
C233        C241   1.381       .  A
C233        C249   1.430       .  A
C234        C250   1.436       .  A
C234        C242   1.387       .  A
C235        C243   1.391       .  A
C235        C252   1.447       .  A
C236        C251   1.434       .  A
C236        C244   1.383       .  A
C237        C249   1.445       .  A
C237        C245   1.388       .  A
C238        C252   1.435       .  A
C238        C246   1.384       .  A
C239        C247   1.384       .  A
C239        C250   1.435       .  A
C240        C248   1.388       .  A
C240        C251   1.442       .  A
C241        C242   1.383       .  A
C241        H253   1.082       .  S
C242        H254   1.082       .  S
C243        C244   1.382       .  A
C243        H255   1.080       .  S
C244        H256   1.082       .  S
C245        C246   1.381   1_554  A
C245        H257   1.081       .  S
C246        H258   1.082       .  S
C247        C248   1.382   1_554  A
C247        H259   1.082       .  S
C248        H260   1.082       .  S
C250        N375   1.478       .  S
C252        N306   1.482       .  S
N263        C268   1.365       .  A
N263        C267   1.370       .  A
N263        H295   1.042       .  S
N264        C271   1.363       .  A
N264        C272   1.361   1_554  A
N265        C270   1.368       .  A
N265        C269   1.366       .  A
N265        H296   1.042       .  S
N266        C273   1.365       .  A
N266        C274   1.368   1_554  A
C267        C275   1.381       .  A
C267        C283   1.433       .  A
C268        C284   1.450       .  A
C268        C276   1.393       .  A
C269        C277   1.385       .  A
C269        C286   1.442       .  A
C270        C285   1.436       .  A
C270        C278   1.384       .  A
C271        C283   1.435       .  A
C271        C279   1.388       .  A
C272        C286   1.425       .  A
C272        C280   1.383       .  A
C273        C281   1.386       .  A
C273        C284   1.438       .  A
C274        C282   1.388       .  A
C274        C285   1.446       .  A
C275        C276   1.385       .  A
C275        H287   1.082       .  S
C276        H288   1.082       .  S
C277        C278   1.390       .  A
C277        H289   1.079       .  S
C278        H290   1.082       .  S
C279        C280   1.381   1_554  A
C279        H291   1.082       .  S
C280        H292   1.082       .  S
C281        C282   1.385   1_554  A
C281        H293   1.082       .  S
C282        H294   1.082       .  S
C283        N329   1.482       .  S
C285        N352   1.490       .  S
C297        C299   1.556       .  S
C297        C301   1.548       .  S
C297        C300   1.585       .  S
C297        C556   1.527       .  S
C298        C302   1.589       .  S
C298        C304   1.541       .  S
C298        C303   1.545       .  S
C298        C566   1.511       .  S
C299        C307   1.385       .  A
C299        C302   1.385       .  A
C300        C311   1.417       .  A
C300        C303   1.391       .  A
C301        C315   1.405       .  A
C301        C304   1.358       .  A
C302        C305   1.434       .  A
C303        C309   1.384       .  A
C304        C312   1.392       .  A
C305        N306   1.375       .  A
C305        H318   1.070       .  S
N306        C307   1.342       .  A
C307        H308   1.071       .  S
C309        N310   1.354       .  A
C309        H319   1.082       .  S
N310        C311   1.384       .  A
C311        H317   1.082       .  S
C312        N313   1.354       .  A
C312        H314   1.082       .  S
N313        C315   1.365       .  A
C315        H316   1.081       .  S
C320        C322   1.594       .  S
C320        C324   1.557       .  S
C320        C323   1.555       .  S
C320        C549   1.517       .  S
C321        C325   1.553       .  S
C321        C327   1.535       .  S
C321        C326   1.578       .  S
C321        C539   1.503       .  S
C322        C330   1.428       .  A
C322        C325   1.394       .  A
C323        C334   1.391       .  A
C323        C326   1.380       .  A
C324        C338   1.408       .  A
C324        C327   1.352       .  A
C325        C328   1.382       .  A
C326        C332   1.423       .  A
C327        C335   1.394       .  A
C328        N329   1.352       .  A
C328        H341   1.082       .  S
N329        C330   1.383       .  A
C330        H331   1.080       .  S
C332        N333   1.385       .  A
C332        H342   1.082       .  S
N333        C334   1.357       .  A
C334        H340   1.083       .  S
C335        N336   1.361       .  A
C335        H337   1.081       .  S
N336        C338   1.375       .  A
C338        H339   1.082       .  S
C343        C345   1.604       .  S
C343        C347   1.552       .  S
C343        C346   1.550       .  S
C343        C516   1.532       .  S
C344        C348   1.556       .  S
C344        C350   1.546       .  S
C344        C349   1.593       .  S
C344        C526   1.521       .  S
C345        C353   1.435       .  A
C345        C348   1.390       .  A
C346        C357   1.391       .  A
C346        C349   1.385       .  A
C347        C361   1.400       .  A
C347        C350   1.366       .  A
C348        C351   1.391       .  A
C349        C355   1.431       .  A
C350        C358   1.401       .  A
C351        N352   1.346       .  A
C351        H364   1.077       .  S
N352        C353   1.384       .  A
C353        H354   1.076       .  S
C355        N356   1.391       .  A
C355        H365   1.082       .  S
N356        C357   1.357       .  A
C357        H363   1.082       .  S
C358        N359   1.370       .  A
C358        H360   1.081       .  S
N359        C361   1.374       .  A
C361        H362   1.082       .  S
C366        C368   1.579       .  S
C366        C370   1.562       .  S
C366        C369   1.572       .  S
C366        C506   1.523       .  S
C367        C371   1.523       .  S
C367        C373   1.571       .  S
C367        C372   1.543       .  S
C367        C499   1.486       .  S
C368        C376   1.406       .  A
C368        C371   1.359       .  A
C369        C380   1.408       .  A
C369        C372   1.386       .  A
C370        C384   1.404       .  A
C370        C373   1.391       .  A
C371        C374   1.403       .  A
C372        C378   1.388       .  A
C373        C381   1.404       .  A
C374        N375   1.363       .  A
C374        H387   1.082       .  S
N375        C376   1.363       .  A
C376        H377   1.070       .  S
C378        N379   1.349       .  A
C378        H388   1.080       .  S
N379        C380   1.367       .  A
C380        H386   1.073       .  S
C381        N382   1.371       .  A
C381        H383   1.082       .  S
N382        C384   1.367       .  A
C384        H385   1.082       .  S
C389        N407   1.354       .  A
C389        C426   1.434       .  S
C389        C496   1.461       .  S
N390        N407   1.316       .  A
N390        N412   1.307       .  A
N390       Co427   2.065   1_454  S
C391        N416   1.336   1_556  A
C391        H436   1.079       .  S
C391        C429   1.463       .  S
H392        C433   1.075       .  S
C393        N417   1.339       .  A
C393        H422   1.078       .  S
C393        C397   1.453       .  S
Co394       N412   2.022   1_545  S
Co394       N402   2.039       .  S
Co394       N434   2.094   1_544  S
Co394       N410   2.048       .  S
Co394      Cl438   2.370   1_454  S
N395        C433   1.327       .  A
N395        N402   1.303   1_655  A
N395       Co396   2.037       .  S
Co396       N399   2.037       .  S
Co396       N416   2.079   1_655  S
Co396       N403   2.036   1_554  S
Co396      Cl438   2.453   1_554  S
C397        N435   1.341       .  A
C397        C536   1.460       .  S
N398        N405   1.315       .  A
N398        N428   1.325   1_556  A
N398       Co431   2.112   1_565  S
N399        N417   1.312       .  A
N399        N435   1.310       .  A
N400        C429   1.341   1_554  A
N400        N410   1.319       .  A
H401        C426   1.081       .  S
N402        N423   1.310       .  A
N403        N421   1.309       .  A
N403        N408   1.321       .  A
C404        N408   1.352       .  A
C404        C432   1.459       .  S
C404        C576   1.454       .  S
N405        C420   1.328   1_556  A
N405       Co427   2.028       .  S
C406        N434   1.342       .  A
C406        H440   1.081   1_556  S
C406        C409   1.459       .  S
C409        N430   1.334       .  A
C409        C599   1.433       .  S
N410        N416   1.314       .  A
N411        C437   1.332       .  A
N411        N413   1.304       .  A
N411       Co427   2.039       .  S
N412        C426   1.326       .  A
N413        N441   1.313       .  A
N413       Co431   2.032   1_565  S
H414        C437   1.082   1_455  S
H415        C432   1.079       .  S
N417       Co431   2.054   1_554  S
N418        N430   1.305       .  A
N418        N434   1.312       .  A
N418       Co427   1.990   1_455  S
C419        N423   1.349       .  A
C419        C433   1.467   1_455  S
C419        C649   1.496       .  S
C420        H424   1.082       .  S
C420        C439   1.450       .  S
N421        C432   1.318       .  A
N421       Co431   2.044       .  S
C425        N441   1.333       .  A
C425        C437   1.470       .  S
C425        C569   1.455       .  S
Co427      Cl438   2.448   1_565  S
N428        C439   1.353       .  A
C429        C529   1.465       .  S
Co431      Cl438   2.359       .  S
C439        C629   1.466       .  S
C442        N460   1.345       .  A
C442        C479   1.449       .  S
C442        C546   1.447       .  S
N443        N460   1.320       .  A
N443        N465   1.315       .  A
N443       Co480   2.069       .  S
C444        N469   1.346       .  A
C444        H489   1.081       .  S
C444        C482   1.470       .  S
H445        C486   1.075       .  S
C446        N470   1.327       .  A
C446        H475   1.076       .  S
C446        C450   1.471       .  S
Co447       N465   2.043       .  S
Co447       N455   2.039       .  S
Co447       N487   2.033       .  S
Co447       N463   2.032       .  S
Co447      Cl491   2.472       .  S
N448        C486   1.314       .  A
N448        N455   1.306       .  A
N448       Co449   2.052       .  S
Co449       N452   2.075       .  S
Co449       N469   2.091       .  S
Co449       N456   2.095       .  S
Co449      Cl491   2.351       .  S
C450        N488   1.355       .  A
C450        C509   1.491       .  S
N451        N458   1.310       .  A
N451        N481   1.303       .  A
N451       Co484   1.993       .  S
N452        N470   1.303       .  A
N452        N488   1.315       .  A
N453        C482   1.343       .  A
N453        N463   1.310       .  A
H454        C479   1.081       .  S
N455        N476   1.320       .  A
N456        N474   1.306       .  A
N456        N461   1.329       .  A
C457        N461   1.367       .  A
C457        C485   1.461       .  S
C457        C609   1.499       .  S
N458        C473   1.355       .  A
N458       Co480   2.098       .  S
C459        N487   1.323       .  A
C459        H493   1.080       .  S
C459        C462   1.474       .  S
C462        N483   1.333       .  A
C462        C589   1.460       .  S
N463        N469   1.313       .  A
N464        C490   1.319       .  A
N464        N466   1.301       .  A
N464       Co480   2.035       .  S
N465        C479   1.328       .  A
N466        N494   1.321       .  A
N466       Co484   2.067       .  S
H467        C490   1.068       .  S
H468        C485   1.069       .  S
N470       Co484   2.016       .  S
N471        N483   1.314       .  A
N471        N487   1.307       .  A
N471       Co480   2.045       .  S
C472        N476   1.357       .  A
C472        C486   1.469       .  S
C472        C639   1.489       .  S
C473        H477   1.081       .  S
C473        C492   1.467       .  S
N474        C485   1.309       .  A
N474       Co484   2.032       .  S
C478        N494   1.362       .  A
C478        C490   1.451       .  S
C478        C559   1.486       .  S
Co480      Cl491   2.349       .  S
N481        C492   1.332       .  A
C482        C519   1.467       .  S
Co484      Cl491   2.461       .  S
C492        C616   1.452       .  S
C495        C496   1.441       .  A
C495        C500   1.391       .  A
C495       Br502   1.940       .  S
C496        C497   1.399       .  A
C497        C498   1.384       .  A
C497       Br504   1.930       .  S
C498        C499   1.412       .  A
C498       Br503   1.935       .  S
C499        C500   1.393       .  A
C500       Br501   1.941       .  S
C505        C506   1.411       .  A
C505        C510   1.389       .  A
C505       Br512   1.915       .  S
C506        C507   1.434       .  A
C507        C508   1.410       .  A
C507       Br514   1.931       .  S
C508        C509   1.411       .  A
C508       Br513   1.921       .  S
C509        C510   1.404       .  A
C510       Br511   1.925       .  S
C515        C516   1.389       .  A
C515        C520   1.393       .  A
C515       Br522   1.896       .  S
C516        C517   1.444       .  A
C517        C518   1.411       .  A
C517       Br524   1.938       .  S
C518        C519   1.395       .  A
C518       Br523   1.928       .  S
C519        C520   1.402       .  A
C520       Br521   1.915       .  S
C525        C526   1.424       .  A
C525        C530   1.401       .  A
C525       Br532   1.937       .  S
C526        C527   1.393       .  A
C527        C528   1.403       .  A
C527       Br534   1.906       .  S
C528        C529   1.409       .  A
C528       Br533   1.911       .  S
C529        C530   1.397       .  A
C530       Br531   1.922       .  S
C535        C536   1.406       .  A
C535        C540   1.396       .  A
C535       Br542   1.909       .  S
C536        C537   1.385       .  A
C537        C538   1.391       .  A
C537       Br544   1.922       .  S
C538        C539   1.445       .  A
C538       Br543   1.943       .  S
C539        C540   1.414       .  A
C540       Br541   1.932       .  S
C545        C546   1.410       .  A
C545        C550   1.401       .  A
C545       Br552   1.919       .  S
C546        C547   1.386       .  A
C547        C548   1.390       .  A
C547       Br554   1.933       .  S
C548        C549   1.444       .  A
C548       Br553   1.954       .  S
C549        C550   1.404       .  A
C550       Br551   1.922       .  S
C555        C556   1.448       .  A
C555        C560   1.390       .  A
C555       Br562   1.949       .  S
C556        C557   1.419       .  A
C557        C558   1.404       .  A
C557       Br564   1.927       .  S
C558        C559   1.417       .  A
C558       Br563   1.937       .  S
C559        C560   1.398       .  A
C560       Br561   1.931       .  S
C565        C566   1.383       .  A
C565        C570   1.379       .  A
C565       Br572   1.899       .  S
C566        C567   1.449       .  A
C567        C568   1.394       .  A
C567       Br574   1.943       .  S
C568        C569   1.390       .  A
C568       Br573   1.936       .  S
C569        C570   1.421       .  A
C570       Br571   1.934       .  S
C575        C576   1.405       .  A
C575        C580   1.396       .  A
C575       Br582   1.932       .  S
C576        C577   1.400       .  A
C577        C578   1.396       .  A
C577       Br584   1.927       .  S
C578        C579   1.458       .  A
C578       Br583   1.954       .  S
C579        C580   1.417       .  A
C580       Br581   1.910       .  S
C585        C586   1.402       .  A
C585        C590   1.389       .  A
C585       Br592   1.921       .  S
C586        C587   1.378       .  A
C587        C588   1.387       .  A
C587       Br594   1.914       .  S
C588        C589   1.429       .  A
C588       Br593   1.929       .  S
C589        C590   1.393       .  A
C590       Br591   1.910       .  S
C595        C596   1.442       .  A
C595        C600   1.386       .  A
C595       Br602   1.943       .  S
C596        C597   1.419       .  A
C597        C598   1.400       .  A
C597       Br604   1.929       .  S
C598        C599   1.405       .  A
C598       Br603   1.925       .  S
C599        C600   1.382       .  A
C600       Br601   1.928       .  S
C605        C606   1.407       .  A
C605        C610   1.395       .  A
C605       Br612   1.939       .  S
C606        C607   1.399       .  A
C607        C608   1.411       .  A
C607       Br614   1.928       .  S
C608        C609   1.423       .  A
C608       Br613   1.921       .  S
C609        C610   1.422       .  A
C610       Br611   1.952       .  S
C615        C616   1.409       .  A
C615        C620   1.411       .  A
C615       Br622   1.915       .  S
C616        C617   1.403       .  A
C617        C618   1.396       .  A
C617       Br624   1.924       .  S
C618        C619   1.396       .  A
C618       Br623   1.929       .  S
C619        C620   1.407       .  A
C620       Br621   1.923       .  S
C625        C626   1.404       .  A
C625        C630   1.402       .  A
C625       Br632   1.923       .  S
C626        C627   1.440       .  A
C627        C628   1.401       .  A
C627       Br634   1.937       .  S
C628        C629   1.387       .  A
C628       Br633   1.923       .  S
C629        C630   1.399       .  A
C630       Br631   1.888       .  S
C635        C636   1.404       .  A
C635        C640   1.404       .  A
C635       Br642   1.928       .  S
C636        C637   1.407       .  A
C637        C638   1.399       .  A
C637       Br644   1.925       .  S
C638        C639   1.409       .  A
C638       Br643   1.944       .  S
C639        C640   1.419       .  A
C640       Br641   1.931       .  S
C645        C646   1.390       .  A
C645        C650   1.398       .  A
C645       Br652   1.930       .  S
C646        C647   1.386       .  A
C647        C648   1.397       .  A
C647       Br654   1.928       .  S
C648        C649   1.433       .  A
C648       Br653   1.937       .  S
C649        C650   1.432       .  A
C650       Br651   1.944       .  S
