geometry optimzed in LAMMPS
_audit_creation_date              2020-12-01 
_audit_creation_method            'lammps2cif' 
_symmetry_space_group_name_H-M    'P1' 
_symmetry_Int_Tables_number       1 
_symmetry_cell_setting            triclinic 
loop_ 
_symmetry_equiv_pos_as_xyz 
  x,y,z 
_cell_length_a                    52.7638264 
_cell_length_b                    52.57621545128882 
_cell_length_c                    52.572846689278954 
_cell_angle_alpha                 89.98313245071137 
_cell_angle_beta                  90.1924765220404 
_cell_angle_gamma                 90.04080177413461 
loop_ 
_atom_site_label 
_atom_site_type_symbol 
_atom_site_fract_x 
_atom_site_fract_y 
_atom_site_fract_z 
_atom_site_charge 
C1          C  0.06051962  0.67096653  0.94675100     0.81200
N2          N  0.05095817  0.68128990  0.92507794    -0.77100
C3          C  0.06114038  0.70250674  0.91443100     0.83700
N4          N  0.08142405  0.71365957  0.92604917    -0.77000
C5          C  0.09154059  0.70336754  0.94762112     0.83800
N6          N  0.08087423  0.68220659  0.95801137    -0.78700
C7          C  0.86778849  0.67220012  0.94386316     0.81200
N8          N  0.88021537  0.68435015  0.92479307    -0.77100
C9          C  0.87077237  0.70613686  0.91461767     0.83700
N10         N  0.84911404  0.71633731  0.92406009    -0.77000
C11         C  0.83645143  0.70448110  0.94317709     0.83800
N12         N  0.84594148  0.68245488  0.95288409    -0.78700
C13         C  0.86825092  0.67049812  0.13362573     0.81200
N14         N  0.84746856  0.68113962  0.12234575    -0.77100
C15         C  0.83778555  0.70359976  0.13105666     0.83700
N16         N  0.84939640  0.71562292  0.15079683    -0.77000
C17         C  0.86984261  0.70503097  0.16234966     0.83800
N18         N  0.87916872  0.68265268  0.15365741    -0.78700
C19         C  0.06192775  0.66614621  0.13282816     0.81200
N20         N  0.08245377  0.67770017  0.12254285    -0.77100
C21         C  0.09266354  0.69854704  0.13375089     0.83700
N22         N  0.08195532  0.70810589  0.15520376    -0.77000
C23         C  0.06128252  0.69683767  0.16585152     0.83800
N24         N  0.05128275  0.67587598  0.15426646    -0.78700
C25         C  0.86587108  0.36926685  0.13356727     0.81200
N26         N  0.84345124  0.35934003  0.12560835    -0.77100
C27         C  0.83360123  0.33811931  0.13663887     0.83700
N28         N  0.84692238  0.32649709  0.15557213    -0.77000
C29         C  0.86938594  0.33631959  0.16370112     0.83800
N30         N  0.87882664  0.35759582  0.15258589    -0.78700
C31         C  0.86414518  0.36826284  0.94242132     0.81200
N32         N  0.87289781  0.35651575  0.92117633    -0.77100
C33         C  0.86238394  0.33447727  0.91260001     0.83700
N34         N  0.84283710  0.32398958  0.92581103    -0.77000
C35         C  0.83360429  0.33568267  0.94694179     0.83800
N36         N  0.84450968  0.35761988  0.95534200    -0.78700
C37         C  0.05785269  0.36908871  0.94043760     0.81200
N38         N  0.07965205  0.35870522  0.94952458    -0.77100
C39         C  0.08942957  0.33706471  0.93928255     0.83700
N40         N  0.07670398  0.32552441  0.91992899    -0.77000
C41         C  0.05492552  0.33577623  0.91061078     0.83800
N42         N  0.04546517  0.35739389  0.92103702    -0.78700
C43         C  0.05665248  0.36633073  0.13169737     0.81200
N44         N  0.07589269  0.35483503  0.11904833    -0.77100
C45         C  0.08694353  0.33354445  0.12862050     0.83700
N46         N  0.07847993  0.32342219  0.15081168    -0.77000
C47         C  0.05927343  0.33477250  0.16372963     0.83800
N48         N  0.04842310  0.35610816  0.15390583    -0.78700
O49         O  0.01530191  0.56004103  0.08526798    -0.74300
O50         O  0.99106737  0.58999190  0.06575768    -0.53200
C51         C  0.00937919  0.58336520  0.08055642     0.79500
O52         O  0.01274935  0.47597951  0.98695796    -0.58900
O53         O  0.99003018  0.44635344  0.00898910    -0.51900
C54         C  0.00695539  0.45277319  0.99258826     0.71500
O55         O  0.01350302  0.56296544  0.98909810    -0.73400
O56         O  0.98956321  0.59187853  0.01067680    -0.54000
C57         C  0.00702389  0.58600596  0.99474824     0.77500
O58         O  0.01100132  0.47434699  0.08825121    -0.58600
O59         O  0.98793844  0.44545387  0.06552184    -0.51700
C60         C  0.00468480  0.45135468  0.08243661     0.74100
Zr61       Zr  0.99850202  0.51758635  0.07591493     2.54700
O62         O  0.04410997  0.51591643  0.08252115    -0.79100
O63         O  0.98969314  0.51852046  0.12133649    -0.92600
Zr64       Zr  0.00049661  0.51918356  0.00011878     2.64700
O65         O  0.04660329  0.51917866  0.00245431    -0.97500
O66         O  0.00043805  0.52048147  0.95384510    -0.79600
O67         O  0.00007753  0.54286916  0.03848694    -0.82900
O68         O  0.99989391  0.49379596  0.03759729    -2.17600
O69         O  0.91072522  0.47558331  0.08646456    -0.66300
O70         O  0.93237020  0.44609338  0.06331136    -0.50900
C71         C  0.91592336  0.45246355  0.08022444     0.72400
O72         O  0.91227383  0.56311732  0.98654710    -0.59200
O73         O  0.93365720  0.59186094  0.01110411    -0.51200
C74         C  0.91745998  0.58603643  0.99368349     0.74300
O75         O  0.91231346  0.47686334  0.98419833    -0.70600
O76         O  0.93398162  0.44693988  0.00698264    -0.49300
C77         C  0.91774079  0.45357877  0.98986256     0.75600
O78         O  0.91182597  0.56164634  0.08815618    -0.66000
O79         O  0.93542406  0.59113989  0.06700332    -0.53200
C80         C  0.91857170  0.58478951  0.08348120     0.74000
Zr81       Zr  0.92328531  0.51862170  0.07394103     2.77500
O82         O  0.87725732  0.51817394  0.07048348    -0.96700
O83         O  0.92173457  0.51873915  0.12019183    -0.77500
Zr84       Zr  0.92515807  0.51968823  0.99808535     2.70100
O85         O  0.87911605  0.52055933  0.99646274    -0.78800
O86         O  0.92964436  0.52142496  0.95204955    -0.97900
Zr87       Zr  0.96207535  0.56734614  0.03797854     2.21500
Zr88       Zr  0.96140778  0.46985626  0.03636942     2.11100
O89         O  0.92351052  0.49459536  0.03563528    -2.46500
O90         O  0.92361769  0.54373063  0.03640513    -0.78600
O91         O  0.96060869  0.49330610  0.07508526    -0.70800
O92         O  0.96295726  0.54405780  0.99907403    -2.31700
O93         O  0.96127105  0.54275874  0.07596682    -2.27900
O94         O  0.96263689  0.49464613  0.99836616    -0.72500
H95         H  0.01447104  0.48270231  0.03786962     0.79500
H96         H  0.96326620  0.55536827  0.98458368     0.80600
H97         H  0.90879490  0.48372951  0.03503523     0.82800
H98         H  0.96133541  0.55362249  0.09075695     0.80400
H99         H  0.01746985  0.52690202  0.94926562     0.43400
H100        H  0.94084637  0.50693113  0.94784722     0.42400
H101        H  0.87398375  0.52639214  0.01358925     0.42100
H102        H  0.87336375  0.50450959  0.05812205     0.40000
H103        H  0.93519060  0.53076083  0.12550958     0.43100
H104        H  0.98790134  0.53675685  0.12564066     0.37900
H105        H  0.05127239  0.51717048  0.06518011     0.44000
H106        H  0.05111739  0.50249140  0.00992000     0.40500
H107        H  0.87138105  0.51137922  0.08701545     0.45400
H108        H  0.00578292  0.51322979  0.12948328     0.44100
H109        H  0.05220179  0.51806220  0.98453106     0.44200
H110        H  0.91279298  0.51642176  0.94538292     0.44600
C111        C  0.61797942  0.92644184  0.13062218     0.81200
N112        N  0.62930628  0.93820219  0.15063986    -0.77100
C113        C  0.65048817  0.92827672  0.16147724     0.83700
N114        N  0.66075240  0.90657219  0.15190645    -0.77000
C115        C  0.64954691  0.89440339  0.13193621     0.83800
N116        N  0.62815800  0.90454602  0.12132781    -0.78700
C117        C  0.61588506  0.92617553  0.94347990     0.81200
N118        N  0.62680007  0.93603030  0.92231440    -0.77100
C119        C  0.64782422  0.92517684  0.91202366     0.83700
N120        N  0.65836974  0.90468811  0.92381306    -0.77000
C121        C  0.64764315  0.89481526  0.94515378     0.83800
N122        N  0.62644977  0.90563634  0.95494516    -0.78700
C123        C  0.62032809  0.11053547  0.94550015     0.81200
N124        N  0.63266003  0.12930893  0.95834037    -0.77100
C125        C  0.65572602  0.13783086  0.95055288     0.83700
N126        N  0.66694939  0.12720208  0.92983106    -0.77000
C127        C  0.65491834  0.10839931  0.91668685     0.83800
N128        N  0.63177773  0.10037324  0.92475580    -0.78700
C129        C  0.61409014  0.11551165  0.13789926     0.81200
N130        N  0.62358173  0.13768989  0.12867271    -0.77100
C131        C  0.64406587  0.14911797  0.13957066     0.83700
N132        N  0.65537387  0.13762747  0.15982868    -0.77000
C133        C  0.64605133  0.11546507  0.16933078     0.83800
N134        N  0.62554137  0.10440015  0.15821315    -0.78700
C135        C  0.31308957  0.11801061  0.94207834     0.81200
N136        N  0.30351250  0.14030018  0.95098512    -0.77100
C137        C  0.28185786  0.15048639  0.94121511     0.83700
N138        N  0.26956563  0.13777285  0.92230937    -0.77000
C139        C  0.27891951  0.11556103  0.91299352     0.83800
N140        N  0.30057389  0.10564065  0.92306301    -0.78700
C141        C  0.31102376  0.92772989  0.94511619     0.81200
N142        N  0.29780888  0.93848370  0.92572158    -0.77100
C143        C  0.27600068  0.92771104  0.91725562     0.83700
N144        N  0.26721311  0.90621314  0.92847825    -0.77000
C145        C  0.28002675  0.89514739  0.94806657     0.83800
N146        N  0.30194398  0.90626330  0.95639714    -0.78700
C147        C  0.31381362  0.92709198  0.13213421     0.81200
N148        N  0.30301424  0.94014810  0.15155711    -0.77100
C149        C  0.28110169  0.93188892  0.16218773     0.83700
N150        N  0.26945119  0.91079633  0.15290412    -0.77000
C151        C  0.27999982  0.89745483  0.13350960     0.83800
N152        N  0.30214408  0.90578090  0.12315867    -0.78700
C153        C  0.31517302  0.11972835  0.13295443     0.81200
N154        N  0.30472605  0.13994666  0.12058845    -0.77100
C155        C  0.28349148  0.15133122  0.12980956     0.83700
N156        N  0.27237194  0.14206952  0.15116254    -0.77000
C157        C  0.28257415  0.12193408  0.16374230     0.83800
N158        N  0.30388418  0.11079881  0.15439511    -0.78700
O159        O  0.50870153  0.07000680  0.08992088    -0.74300
O160        O  0.53750701  0.04920165  0.06531694    -0.53200
C161        C  0.53166169  0.06464396  0.08331903     0.79500
O162        O  0.42268573  0.97057977  0.08763396    -0.58900
O163        O  0.39306589  0.99260028  0.06477269    -0.51900
C164        C  0.39955000  0.97580614  0.08145026     0.71500
O165        O  0.50922206  0.97192774  0.08712923    -0.73400
O166        O  0.53748682  0.99394430  0.06322737    -0.54000
C167        C  0.53216886  0.97749698  0.08049557     0.77500
O168        O  0.42219196  0.07197111  0.08921291    -0.58600
O169        O  0.39263239  0.04963784  0.06664388    -0.51700
C170        C  0.39903893  0.06617274  0.08360371     0.74100
Zr171      Zr  0.46521116  0.05971657  0.07605996     2.54700
O172        O  0.46433084  0.06068163  0.12234019    -0.79100
O173        O  0.46699206  0.10591311  0.07354590    -0.92600
Zr174      Zr  0.46553241  0.98390486  0.07479140     2.64700
O175        O  0.46815099  0.98466475  0.12097859    -0.97500
O176        O  0.46431399  0.93767922  0.07290533    -0.79600
O177        O  0.48978041  0.02191628  0.07565702    -0.82900
O178        O  0.44080241  0.02164963  0.07604595    -2.17600
O179        O  0.42102294  0.07345544  0.98718710    -0.66300
O180        O  0.39216172  0.05113687  0.01053487    -0.50900
C181        C  0.39809850  0.06771685  0.99347098     0.72400
O182        O  0.50780996  0.97352855  0.98516681    -0.59200
O183        O  0.53642885  0.99372949  0.01031798    -0.51200
C184        C  0.53082405  0.97813472  0.99239315     0.74300
O185        O  0.42162743  0.97422043  0.98386106    -0.70600
O186        O  0.39297132  0.99440231  0.00898105    -0.49300
C187        C  0.39863622  0.97926891  0.99056376     0.75600
O188        O  0.50651734  0.07416197  0.98667146    -0.66000
O189        O  0.53581819  0.04952993  0.00718416    -0.53200
C190        C  0.52942995  0.06692989  0.99116434     0.74000
Zr191      Zr  0.46406045  0.06131683  0.00041541     2.77500
O192        O  0.46573421  0.06217416  0.95419162    -0.96700
O193        O  0.46254270  0.10745481  0.00406599    -0.77500
Zr194      Zr  0.46456490  0.98523392  0.99883936     2.70100
O195        O  0.46557048  0.98281171  0.95263163    -0.78800
O196        O  0.46402619  0.93943480  0.00520762    -0.97900
Zr197      Zr  0.51294536  0.02259846  0.03689936     2.21500
Zr198      Zr  0.41617119  0.02225608  0.03780803     2.11100
O199        O  0.43997245  0.02317038  0.99928378    -2.46500
O200        O  0.48861077  0.02343255  0.99877765    -0.78600
O201        O  0.43998588  0.06078793  0.03851855    -0.70800
O202        O  0.48929408  0.98408693  0.03656162    -2.31700
O203        O  0.48926230  0.06114688  0.03796534    -2.27900
O204        O  0.44051738  0.98416034  0.03699116    -0.72500
H205        H  0.42994986  0.02130317  0.09080143     0.79500
H206        H  0.50030670  0.96942684  0.03624142     0.80600
H207        H  0.42891504  0.02349188  0.98461267     0.82800
H208        H  0.50044259  0.07570264  0.03813294     0.80400
H209        H  0.47625386  0.93315572  0.05915057     0.43400
H210        H  0.44732572  0.93585150  0.01296184     0.42400
H211        H  0.47057408  0.00011771  0.94715524     0.42100
H212        H  0.45461224  0.04800910  0.94875717     0.40000
H213        H  0.47758228  0.11195814  0.01442795     0.43100
H214        H  0.45662776  0.11013829  0.05840383     0.37900
H215        H  0.45250436  0.04689348  0.12717662     0.44000
H216        H  0.45575128  0.99775484  0.12620015     0.40500
H217        H  0.45649272  0.07780583  0.94925533     0.45400
H218        H  0.48458137  0.10991646  0.06839919     0.44100
H219        H  0.46063670  0.96829580  0.12641835     0.44200
H220        H  0.46275613  0.93237598  0.98783853     0.44600
C221        C  0.05841856  0.92108996  0.68738284     0.81200
N222        N  0.04935890  0.89913118  0.69759646    -0.77100
C223        C  0.05944146  0.88927244  0.71937286     0.83700
N224        N  0.07830870  0.90231366  0.73129102    -0.77000
C225        C  0.08737225  0.92441359  0.72146808     0.83800
N226        N  0.07739443  0.93374009  0.69949844    -0.78700
C227        C  0.87310273  0.92694538  0.68961676     0.81200
N228        N  0.88537715  0.90765571  0.70184451    -0.77100
C229        C  0.87575667  0.89728293  0.72352576     0.83700
N230        N  0.85384482  0.90671603  0.73344426    -0.77000
C231        C  0.84125425  0.92598201  0.72147175     0.83800
N232        N  0.85107394  0.93578184  0.69965621    -0.78700
C233        C  0.86890204  0.11145249  0.68860081     0.81200
N234        N  0.87933362  0.13227969  0.69971688    -0.77100
C235        C  0.86970347  0.14190061  0.72169930     0.83700
N236        N  0.84964846  0.12998220  0.73282625    -0.77000
C237        C  0.83910990  0.10903735  0.72182768     0.83800
N238        N  0.84894241  0.09972812  0.69986250    -0.78700
C239        C  0.05714659  0.11765848  0.68870424     0.81200
N240        N  0.07682482  0.10584303  0.70052304    -0.77100
C241        C  0.08645526  0.11504456  0.72266628     0.83700
N242        N  0.07582184  0.13587129  0.73362387    -0.77000
C243        C  0.05614861  0.14807042  0.72214449     0.83800
N244        N  0.04700067  0.13878107  0.69970541    -0.78700
C245        C  0.87213459  0.11660170  0.38444508     0.81200
N246        N  0.88149605  0.13747867  0.37258640    -0.77100
C247        C  0.87034468  0.14658858  0.35109193     0.83700
N248        N  0.84997950  0.13420859  0.34111772    -0.77000
C249        C  0.84041750  0.11335337  0.35298850     0.83800
N250        N  0.85167228  0.10448189  0.37448881    -0.78700
C251        C  0.87213196  0.92467439  0.38328911     0.81200
N252        N  0.88420071  0.90585207  0.37045226    -0.77100
C253        C  0.87368384  0.89559358  0.34918471     0.83700
N254        N  0.85130357  0.90467723  0.34021832    -0.77000
C255        C  0.83900733  0.92360472  0.35269966     0.83800
N256        N  0.84960439  0.93342699  0.37419378    -0.78700
C257        C  0.06347470  0.92748002  0.38325192     0.81200
N258        N  0.08369733  0.93829792  0.37158763    -0.77100
C259        C  0.09346959  0.92789627  0.35013765     0.83700
N260        N  0.08265829  0.90666952  0.34003858    -0.77000
C261        C  0.06238517  0.89541793  0.35140692     0.83800
N262        N  0.05279802  0.90618536  0.37299481    -0.78700
C263        C  0.06057238  0.11895310  0.38768232     0.81200
N264        N  0.07983477  0.10707610  0.37532425    -0.77100
C265        C  0.08971805  0.11694608  0.35361712     0.83700
N266        N  0.07977553  0.13860378  0.34361767    -0.77000
C267        C  0.06050079  0.15084912  0.35555625     0.83800
N268        N  0.05120387  0.14078360  0.37748234    -0.78700
O269        O  0.01505568  0.96762331  0.57910292    -0.74300
O270        O  0.99317258  0.99076818  0.60838137    -0.53200
C271        C  0.00928101  0.97345435  0.60227470     0.79500
O272        O  0.01700981  0.07095309  0.49482998    -0.58900
O273        O  0.99369828  0.04992639  0.46475522    -0.51900
C274        C  0.01057517  0.06624654  0.47169016     0.71500
O275        O  0.01638946  0.06981114  0.58012842    -0.73400
O276        O  0.99276749  0.04779944  0.60904875    -0.54000
C277        C  0.00962965  0.06451322  0.60306799     0.77500
O278        O  0.01748677  0.97043530  0.49224456    -0.58600
O279        O  0.99443744  0.99260205  0.46311471    -0.51700
C280        C  0.01186878  0.97650670  0.46905054     0.74100
Zr281      Zr  0.00283906  0.98070376  0.53564966     2.54700
O282        O  0.04877589  0.97730235  0.53599878    -0.79100
O283        O  0.99717453  0.93474962  0.53386294    -0.92600
Zr284      Zr  0.00439765  0.05661583  0.53704789     2.64700
O285        O  0.05043786  0.05339728  0.53779016    -0.97500
O286        O  0.00454853  0.10291433  0.53706366    -0.79600
O287        O  0.00426335  0.01828247  0.56095628    -0.82900
O288        O  0.00437635  0.01912737  0.51186114    -2.17600
O289        O  0.91656281  0.96894983  0.49141610    -0.66300
O290        O  0.93882767  0.99250587  0.46257985    -0.50900
C291        C  0.92250437  0.97530431  0.46847399     0.72400
O292        O  0.91503691  0.06917627  0.57949097    -0.59200
O293        O  0.93842539  0.04711502  0.60812547    -0.51200
C294        C  0.92108105  0.06332699  0.60262688     0.74300
O295        O  0.91781404  0.07180146  0.49226018    -0.70600
O296        O  0.93874728  0.04780137  0.46315530    -0.49300
C297        C  0.92312636  0.06556282  0.46908035     0.75600
O298        O  0.91431242  0.96893059  0.57767616    -0.66000
O299        O  0.93590135  0.99230921  0.60731744    -0.53200
C300        C  0.91947764  0.97535751  0.60080413     0.74000
Zr301      Zr  0.92729481  0.98250674  0.53489874     2.77500
O302        O  0.88157602  0.98874766  0.53386972    -0.96700
O303        O  0.92307764  0.93640654  0.53468501    -0.77500
Zr304      Zr  0.92881717  0.05823810  0.53592990     2.70100
O305        O  0.88272562  0.05912649  0.53635453    -0.78800
O306        O  0.93213882  0.10441964  0.53667760    -0.97900
Zr307      Zr  0.96577372  0.01909978  0.58445457     2.21500
Zr308      Zr  0.96638933  0.02011141  0.48723139     2.11100
O309        O  0.92773648  0.02066545  0.51075634    -2.46500
O310        O  0.92770354  0.02002903  0.56001672    -0.78600
O311        O  0.96526665  0.98134087  0.51064417    -0.70800
O312        O  0.96637392  0.05777955  0.56090209    -2.31700
O313        O  0.96492229  0.98089662  0.55989297    -2.27900
O314        O  0.96688755  0.05804933  0.51193413    -0.72500
H315        H  0.01910398  0.01922857  0.50101089     0.79500
H316        H  0.96643412  0.07240050  0.57202555     0.80600
H317        H  0.91320183  0.02100981  0.49953375     0.82800
H318        H  0.96450036  0.96614315  0.57079381     0.80400
H319        H  0.02271342  0.10763179  0.53754542     0.43400
H320        H  0.94632796  0.10834331  0.52503313     0.42400
H321        H  0.87786046  0.04610607  0.54904459     0.42100
H322        H  0.87447249  0.97131474  0.53377953     0.40000
H323        H  0.93701653  0.93032119  0.54575627     0.43100
H324        H  0.98133258  0.93226327  0.52402256     0.37900
H325        H  0.05468239  0.99450038  0.54089445     0.44000
H326        H  0.05476665  0.04313719  0.52263144     0.40500
H327        H  0.87734301  0.99551379  0.55091168     0.45400
H328        H  0.99273725  0.92968784  0.55143107     0.44100
H329        H  0.05648301  0.07074171  0.53366965     0.44200
H330        H  0.91683485  0.11047319  0.52756503     0.44600
C331        C  0.98950350  0.29341160  0.23452229    -0.09800
C332        C  0.96700875  0.30077622  0.22259109    -0.03700
C333        C  0.94362552  0.29088827  0.22992221    -0.09800
C334        C  0.94241949  0.27302574  0.24997195     0.11100
C335        C  0.96513882  0.26535868  0.26235114    -0.01600
C336        C  0.98874367  0.27589688  0.25487956     0.10900
C337        C  0.01094258  0.26840149  0.26764201    -0.11600
C338        C  0.01018764  0.24988613  0.28658176    -0.11600
C339        C  0.98722626  0.23815308  0.29331351     0.10900
C340        C  0.96436420  0.24651926  0.28165566    -0.01600
C341        C  0.91925947  0.26239950  0.25770439    -0.11700
C342        C  0.91845343  0.24412469  0.27691317    -0.11700
C343        C  0.94082132  0.23560396  0.28876338     0.11100
C344        C  0.94039954  0.21622837  0.30737438    -0.09800
C345        C  0.96313698  0.20764847  0.31808201    -0.03700
C346        C  0.98651260  0.21803991  0.31119216    -0.09800
H347        H  0.02912983  0.27660398  0.26281077     0.08400
H348        H  0.02783056  0.24455645  0.29569384     0.08400
H349        H  0.90159498  0.26802182  0.24880569     0.08600
H350        H  0.90016940  0.23641639  0.28215217     0.08600
H351        H  0.96779169  0.31391841  0.20668086     0.05000
H352        H  0.96266498  0.19206754  0.33162061     0.05000
C353        C  0.23658468  0.05198914  0.23254152    -0.09800
C354        C  0.24604758  0.02941573  0.22241790    -0.03700
C355        C  0.23629824  0.00572331  0.22930648    -0.09800
C356        C  0.21744850  0.00420627  0.24830632     0.11100
C357        C  0.20814433  0.02696416  0.25948036    -0.01600
C358        C  0.21746403  0.05099857  0.25131479     0.10900
C359        C  0.20723365  0.07328044  0.26185605    -0.11600
C360        C  0.18790187  0.07207339  0.27986289    -0.11600
C361        C  0.17845323  0.04853447  0.28824030     0.10900
C362        C  0.18878129  0.02572821  0.27812903    -0.01600
C363        C  0.20724465  0.98072032  0.25596173    -0.11700
C364        C  0.18856384  0.97948202  0.27462843    -0.11700
C365        C  0.17909123  0.00171835  0.28591459     0.11100
C366        C  0.15967243  0.00074478  0.30434099    -0.09800
C367        C  0.15004934  0.02333610  0.31434641    -0.03700
C368        C  0.15857186  0.04707611  0.30612896    -0.09800
H369        H  0.21402397  0.09183851  0.25609095     0.08400
H370        H  0.18043916  0.08975003  0.28727227     0.08400
H371        H  0.21369083  0.96307266  0.24760729     0.08600
H372        H  0.18140639  0.96094904  0.28002069     0.08600
H373        H  0.26026330  0.03038163  0.20755929     0.05000
H374        H  0.13454463  0.02243486  0.32784459     0.05000
C375        C  0.15995067  0.29409631  0.01015677    -0.09800
C376        C  0.14871544  0.30127776  0.03303661    -0.03700
C377        C  0.15662723  0.29128548  0.05635961    -0.09800
C378        C  0.17704334  0.27385159  0.05714455     0.11100
C379        C  0.18923610  0.26685952  0.03411540    -0.01600
C380        C  0.18068273  0.27703416  0.01051877     0.10900
C381        C  0.19292584  0.26977459  0.98798622    -0.11600
C382        C  0.21279084  0.25230262  0.98844147    -0.11600
C383        C  0.22100115  0.24133437  0.01142153     0.10900
C384        C  0.20943963  0.24898713  0.03457151    -0.01600
C385        C  0.18518707  0.26281219  0.08012334    -0.11700
C386        C  0.20497310  0.24517303  0.08055436    -0.11700
C387        C  0.21732050  0.23800058  0.05802873     0.11100
C388        C  0.23695932  0.21965648  0.05809044    -0.09800
C389        C  0.24820647  0.21257213  0.03514178    -0.03700
C390        C  0.24013859  0.22246564  0.01184332    -0.09800
H391        H  0.18712643  0.27751301  0.96978999     0.08400
H392        H  0.22158397  0.24723630  0.97056946     0.08400
H393        H  0.17618530  0.26764943  0.09795195     0.08600
H394        H  0.21049458  0.23708645  0.09868568     0.08600
H395        H  0.13261707  0.31412477  0.03258852     0.05000
H396        H  0.26245632  0.19768477  0.03528405     0.05000
C397        C  0.69172420  0.99725151  0.23563666    -0.09800
C398        C  0.68284955  0.02074253  0.22710060    -0.03700
C399        C  0.69266235  0.04357988  0.23638078    -0.09800
C400        C  0.71156980  0.04317903  0.25548936     0.11100
C401        C  0.71979121  0.01944504  0.26546990    -0.01600
C402        C  0.70980130  0.99635030  0.25552741     0.10900
C403        C  0.71847205  0.97308728  0.26535337    -0.11600
C404        C  0.73665392  0.97242791  0.28467301    -0.11600
C405        C  0.74731151  0.99499050  0.29430444     0.10900
C406        C  0.73883444  0.01876248  0.28461538    -0.01600
C407        C  0.72283639  0.06570838  0.26441751    -0.26700
C408        C  0.74202962  0.06499685  0.28273722    -0.11700
C409        C  0.75017369  0.04177516  0.29319271     0.11100
C410        C  0.76982148  0.04075085  0.31154745    -0.09800
C411        C  0.77706569  0.01729496  0.32168214    -0.03700
C412        C  0.76667219  0.99446914  0.31299697    -0.09800
H413        H  0.71106405  0.95522072  0.25827135     0.08400
H414        H  0.74256638  0.95404862  0.29183195     0.08400
H415        H  0.71705943  0.08405352  0.25705321     0.08600
H416        H  0.75038385  0.08282790  0.28874635     0.08600
H417        H  0.66922103  0.02125993  0.21158644     0.05000
H418        H  0.79254708  0.01667983  0.33532906     0.05000
C419        C  0.94388959  0.75126235  0.22785188    -0.09800
C420        C  0.96644815  0.73892331  0.22162496    -0.03700
C421        C  0.98956893  0.74523387  0.23304070    -0.09800
C422        C  0.99005843  0.76419494  0.25228076     0.11100
C423        C  0.96733551  0.77729212  0.25856923    -0.01600
C424        C  0.94414562  0.77079066  0.24632013     0.10900
C425        C  0.92204078  0.78434734  0.25239706    -0.11600
C426        C  0.92257344  0.80392548  0.27025984    -0.11600
C427        C  0.94527153  0.81077781  0.28251595     0.10900
C428        C  0.96793303  0.79746095  0.27657987    -0.01600
C429        C  0.01257372  0.77060127  0.26518021    -0.11700
C430        C  0.01320031  0.79056477  0.28271895    -0.11700
C431        C  0.99126383  0.80463573  0.28821738     0.11100
C432        C  0.99183781  0.82572253  0.30505437    -0.09800
C433        C  0.96922676  0.83815814  0.31092969    -0.03700
C434        C  0.94608653  0.83094241  0.30026032    -0.09800
H435        H  0.90414229  0.77998349  0.24326169     0.08400
H436        H  0.90506852  0.81388492  0.27420108     0.08400
H437        H  0.02999458  0.76040893  0.26147500     0.08600
H438        H  0.03107097  0.79505749  0.29185298     0.08600
H439        H  0.96613344  0.72470787  0.20665388     0.05000
H440        H  0.96968094  0.85418409  0.32394489     0.05000
C441        C  0.22748816  0.04350448  0.84862066    -0.09800
C442        C  0.23599165  0.02032472  0.85836135    -0.03700
C443        C  0.22631432  0.99712007  0.84983992    -0.09800
C444        C  0.20796147  0.99677111  0.83019336     0.11100
C445        C  0.19964754  0.02014187  0.81940423    -0.01600
C446        C  0.20927746  0.04365139  0.82877550     0.10900
C447        C  0.20012872  0.06651953  0.81839921    -0.11600
C448        C  0.18183694  0.06639854  0.79911884    -0.11600
C449        C  0.17216964  0.04340367  0.78949316     0.10900
C450        C  0.18112519  0.02002110  0.79972452    -0.01600
C451        C  0.19743910  0.97382976  0.82137915    -0.11700
C452        C  0.17924750  0.97371754  0.80204080    -0.11700
C453        C  0.17094751  0.99654407  0.79090654     0.11100
C454        C  0.15249498  0.99667927  0.77133553    -0.09800
C455        C  0.14450441  0.01975112  0.76102918    -0.03700
C456        C  0.15334949  0.04301302  0.77025741    -0.09800
H457        H  0.20704594  0.08469002  0.82519502     0.08400
H458        H  0.17532530  0.08448207  0.79172868     0.08400
H459        H  0.20328087  0.95576826  0.82936578     0.08600
H460        H  0.17173661  0.95558246  0.79580124     0.08600
H461        H  0.24971654  0.02038306  0.87379766     0.05000
H462        H  0.12979144  0.01965735  0.74653404     0.05000
C463        C  0.97975308  0.28935623  0.84624266    -0.09800
C464        C  0.95619517  0.29782070  0.85484420    -0.03700
C465        C  0.93351091  0.28902844  0.84427794    -0.09800
C466        C  0.93431339  0.27129950  0.82398570     0.11100
C467        C  0.95818132  0.26282935  0.81466882    -0.01600
C468        C  0.98099676  0.27196682  0.82577595     0.10900
C469        C  0.00436068  0.26317437  0.81644054    -0.11600
C470        C  0.00539268  0.24562830  0.79657395    -0.11600
C471        C  0.98310393  0.23580278  0.78570520     0.10900
C472        C  0.95924252  0.24465514  0.79467264    -0.01600
C473        C  0.91202399  0.26176239  0.81285235    -0.11700
C474        C  0.91306245  0.24382772  0.79331120    -0.11700
C475        C  0.93642693  0.23479046  0.78421577     0.11100
C476        C  0.93765912  0.21582487  0.76516125    -0.09800
C477        C  0.96122615  0.20758893  0.75641781    -0.03700
C478        C  0.98390894  0.21704829  0.76634294    -0.09800
H479        H  0.02209019  0.26976017  0.82449671     0.08400
H480        H  0.02383237  0.23951657  0.78999794     0.08400
H481        H  0.89358791  0.26802503  0.81929872     0.08600
H482        H  0.89536273  0.23696077  0.78540853     0.08600
H483        H  0.95549964  0.31101899  0.87070305     0.05000
H484        H  0.96193467  0.19251418  0.74232836     0.05000
C485        C  0.16264833  0.74503580  0.06460798    -0.09800
C486        C  0.15427112  0.73575659  0.04113234    -0.03700
C487        C  0.16328431  0.74552934  0.01815152    -0.09800
C488        C  0.18274738  0.76402532  0.01845583     0.11100
C489        C  0.19150734  0.77377061  0.04213238    -0.01600
C490        C  0.18126937  0.76440707  0.06531595     0.10900
C491        C  0.18941993  0.77507862  0.08844804    -0.11600
C492        C  0.20703328  0.79490414  0.08887264    -0.11600
C493        C  0.21717329  0.80463673  0.06618685     0.10900
C494        C  0.20962027  0.79379069  0.04257272    -0.01600
C495        C  0.19334790  0.77329852  0.99580936    -0.11700
C496        C  0.21192061  0.79220815  0.99629413    -0.11700
C497        C  0.21964835  0.80336808  0.01936013     0.11100
C498        C  0.23686678  0.82410371  0.01997308    -0.09800
C499        C  0.24374204  0.83460611  0.04339227    -0.03700
C500        C  0.23443988  0.82520292  0.06632405    -0.09800
H501        H  0.18202552  0.76829104  0.10640051     0.08400
H502        H  0.21256681  0.80269838  0.10712822     0.08400
H503        H  0.18741795  0.76584573  0.97753478     0.08600
H504        H  0.21975388  0.79848470  0.97835432     0.08600
H505        H  0.13898013  0.72193214  0.04072634     0.05000
H506        H  0.25640613  0.85089210  0.04378103     0.05000
C507        C  0.76523263  0.29291332  0.02112807    -0.09800
C508        C  0.77197083  0.30413516  0.04427681    -0.03700
C509        C  0.76143464  0.29624588  0.06730437    -0.09800
C510        C  0.74211616  0.27757312  0.06717358     0.11100
C511        C  0.73511741  0.26571948  0.04388929    -0.01600
C512        C  0.74682624  0.27327143  0.02075637     0.10900
C513        C  0.74036241  0.26051072  0.99814450    -0.11600
C514        C  0.72303265  0.24039382  0.99825392    -0.11600
C515        C  0.71141259  0.23248450  0.02094196     0.10900
C516        C  0.71722317  0.24548868  0.04394356    -0.01600
C517        C  0.72995003  0.27020376  0.08973232    -0.11700
C518        C  0.71194129  0.25079688  0.08968975    -0.11700
C519        C  0.70582408  0.23773784  0.06716715     0.11100
C520        C  0.68885289  0.21686306  0.06722861    -0.09800
C521        C  0.68343134  0.20433043  0.04444659    -0.03700
C522        C  0.69448527  0.21158333  0.02148324    -0.09800
H523        H  0.74894128  0.26580166  0.98022781     0.08400
H524        H  0.71890156  0.23093382  0.98042391     0.08400
H525        H  0.73439394  0.27938571  0.10763601     0.08600
H526        H  0.70313527  0.24577934  0.10757194     0.08600
H527        H  0.78703448  0.31820966  0.04453606     0.05000
H528        H  0.67089355  0.18794963  0.04472038     0.05000
C529        C  0.94342097  0.75053495  0.84688379    -0.09800
C530        C  0.96626714  0.73986277  0.85510487    -0.03700
C531        C  0.98937447  0.74603775  0.84387170    -0.09800
C532        C  0.98966274  0.76286494  0.82280763     0.11100
C533        C  0.96661955  0.77419086  0.81429385    -0.01600
C534        C  0.94337593  0.76805429  0.82641283     0.10900
C535        C  0.92096606  0.78002747  0.81817061    -0.11600
C536        C  0.92137094  0.79815886  0.79870697    -0.11600
C537        C  0.94416098  0.80480842  0.78666229     0.10900
C538        C  0.96697552  0.79237864  0.79423798    -0.01600
C539        C  0.01230227  0.76873805  0.81014406    -0.11700
C540        C  0.01258642  0.78620367  0.79017321    -0.11700
C541        C  0.99034324  0.79885361  0.78253153     0.11100
C542        C  0.99086861  0.81822114  0.76382153    -0.09800
C543        C  0.96824043  0.83003711  0.75651024    -0.03700
C544        C  0.94501879  0.82397755  0.76766002    -0.09800
H545        H  0.90297406  0.77573296  0.82703487     0.08400
H546        H  0.90369984  0.80713582  0.79327980     0.08400
H547        H  0.03001273  0.75992008  0.81571036     0.08600
H548        H  0.03052788  0.79015999  0.78104942     0.08600
H549        H  0.96614489  0.72706459  0.87131772     0.05000
H550        H  0.96889957  0.84534742  0.74266663     0.05000
C551        C  0.69132563  0.99320166  0.83919258    -0.09800
C552        C  0.68458065  0.01639688  0.85019480    -0.03700
C553        C  0.69406578  0.03952637  0.84136448    -0.09800
C554        C  0.71118119  0.03966466  0.82066225     0.11100
C555        C  0.71826176  0.01623977  0.80909702    -0.01600
C556        C  0.70816512  0.99291034  0.81826213     0.10900
C557        C  0.71543680  0.97002346  0.80652583    -0.11600
C558        C  0.73332358  0.96984140  0.78699289    -0.11600
C559        C  0.74422154  0.99257219  0.77820562     0.10900
C560        C  0.73609289  0.01608026  0.78886260    -0.01600
C561        C  0.72163328  0.06244287  0.81146503    -0.11700
C562        C  0.73924934  0.06226972  0.79172737    -0.11700
C563        C  0.74681471  0.03933381  0.78030434     0.11100
C564        C  0.76539911  0.03890960  0.76100656    -0.09800
C565        C  0.77290488  0.01568517  0.75053139    -0.03700
C566        C  0.76345339  0.99249244  0.75939925    -0.09800
H567        H  0.70765542  0.95200862  0.81272493     0.08400
H568        H  0.73873363  0.95172351  0.77887003     0.08400
H569        H  0.71643690  0.08057667  0.81968413     0.08600
H570        H  0.74699595  0.08028971  0.78548995     0.08600
H571        H  0.67207426  0.01640134  0.86655654     0.05000
H572        H  0.78821131  0.01556621  0.73678081     0.05000
C573        C  0.76484398  0.74595039  0.01333161    -0.09800
C574        C  0.77457511  0.73661663  0.03623375    -0.03700
C575        C  0.76647138  0.74593493  0.05967349    -0.09800
C576        C  0.74697488  0.76433426  0.06055037     0.11100
C577        C  0.73666931  0.77390802  0.03746195    -0.01600
C578        C  0.74587330  0.76496526  0.01372332     0.10900
C579        C  0.73627706  0.77559922  0.99112469    -0.11600
C580        C  0.71821865  0.79496299  0.99178837    -0.11600
C581        C  0.70868857  0.80389558  0.01505400     0.10900
C582        C  0.71777980  0.79311166  0.03812296    -0.01600
C583        C  0.73775034  0.77356809  0.08382177    -0.11700
C584        C  0.71876304  0.79199388  0.08447557    -0.11700
C585        C  0.70872958  0.80219557  0.06188251     0.11100
C586        C  0.69018284  0.82161970  0.06232626    -0.09800
C587        C  0.68116395  0.83163934  0.03945504    -0.03700
C588        C  0.69059688  0.82367027  0.01601212    -0.09800
H589        H  0.74287019  0.76915290  0.97274408     0.08400
H590        H  0.71160197  0.80277745  0.97390514     0.08400
H591        H  0.74508009  0.76646357  0.10172299     0.08600
H592        H  0.71212848  0.79838997  0.10285765     0.08600
H593        H  0.78990634  0.72286441  0.03577370     0.05000
H594        H  0.66768743  0.84722744  0.03995977     0.05000
C595        C  0.04695668  0.17292523  0.34339873    -0.04300
C596        C  0.04428570  0.17482992  0.31655519    -0.01400
C597        C  0.02516457  0.19037718  0.30589248     0.03600
C598        C  0.00974430  0.20551201  0.32171722    -0.04300
C599        C  0.01493349  0.20650442  0.34802789    -0.01400
C600        C  0.03361099  0.19053723  0.35879038     0.03600
C601        C  0.06097119  0.16109583  0.29956410     0.38200
C602        C  0.00051452  0.22354161  0.36414423     0.38200
C603        C  0.03941772  0.19270756  0.38570181     0.36600
C604        C  0.02043660  0.18971601  0.27867341     0.36600
N605        N  0.04413294  0.19452229  0.40714103    -0.38200
N606        N  0.01663132  0.18926414  0.25698419    -0.38200
N607        N  0.98899236  0.23710921  0.37700396    -0.37600
N608        N  0.07449688  0.15084274  0.28564630    -0.37700
C609        C  0.14379783  0.06947783  0.31505698    -0.04300
C610        C  0.15098434  0.08242789  0.33742152    -0.01400
C611        C  0.13370432  0.09897383  0.34951052     0.03600
C612        C  0.10909261  0.10235998  0.33938276    -0.04300
C613        C  0.10245869  0.09042339  0.31623746    -0.01400
C614        C  0.11998299  0.07450211  0.30384868     0.03600
C615        C  0.17594283  0.07818301  0.34820610     0.38200
C616        C  0.07695870  0.09291264  0.30613014     0.38200
C617        C  0.11328106  0.06262089  0.27985123     0.36600
C618        C  0.14110095  0.11223791  0.37253246     0.36600
N619        N  0.10803033  0.05340044  0.26055928    -0.38200
N620        N  0.14706099  0.12287987  0.39086836    -0.38200
N621        N  0.05656432  0.09466488  0.29815075    -0.37600
N622        N  0.19596021  0.07482253  0.35661343    -0.37700
C623        C  0.04837328  0.10694029  0.41082197    -0.04300
C624        C  0.02317367  0.11341743  0.41832866    -0.01400
C625        C  0.01161563  0.10112789  0.43921753     0.03600
C626        C  0.02380645  0.08073247  0.45147022    -0.04300
C627        C  0.04875670  0.07435310  0.44462496    -0.01400
C628        C  0.06139574  0.08802572  0.42527175     0.03600
C629        C  0.00822427  0.13196329  0.40439446     0.38200
C630        C  0.06127694  0.05322398  0.45725820     0.38200
C631        C  0.08807019  0.08283009  0.42114895     0.36600
C632        C  0.98724667  0.10986847  0.44854958     0.36600
N633        N  0.10938715  0.07857703  0.41825703    -0.38200
N634        N  0.96797967  0.11707907  0.45613587    -0.38200
N635        N  0.07107790  0.03619614  0.46717724    -0.37600
N636        N  0.99594356  0.14656772  0.39341998    -0.37700
C637        C  0.11274309  0.94235242  0.33561030    -0.04300
C638        C  0.10544547  0.95504508  0.31307130    -0.01400
C639        C  0.12242254  0.97172791  0.30092356     0.03600
C640        C  0.14624768  0.97700242  0.31195308    -0.04300
C641        C  0.15416583  0.96331585  0.33365225    -0.01400
C642        C  0.13745239  0.94592450  0.34544592     0.03600
C643        C  0.07957310  0.95313486  0.30383151     0.38200
C644        C  0.17910057  0.96797667  0.34434312     0.38200
C645        C  0.14526824  0.93251928  0.36825830     0.36600
C646        C  0.11486833  0.98462239  0.27771639     0.36600
N647        N  0.15153525  0.92185758  0.38648405    -0.38200
N648        N  0.10887549  0.99471421  0.25908915    -0.38200
N649        N  0.19906721  0.97167757  0.35274363    -0.37600
N650        N  0.05885576  0.95197433  0.29662486    -0.37700
C651        C  0.01538162  0.83716967  0.31624380    -0.04300
C652        C  0.01828991  0.83809178  0.34290078    -0.01400
C653        C  0.03542498  0.85540488  0.35422234     0.03600
C654        C  0.04905246  0.87308726  0.33910338    -0.04300
C655        C  0.04817078  0.86999045  0.31215923    -0.01400
C656        C  0.03157459  0.85197265  0.30093445     0.03600
C657        C  0.00256731  0.82196358  0.35878578     0.38200
C658        C  0.06335405  0.88569855  0.29543054     0.38200
C659        C  0.03019272  0.84960716  0.27344976     0.36600
C660        C  0.03914315  0.85441449  0.38150928     0.36600
N661        N  0.02932061  0.84748806  0.25155211    -0.38200
N662        N  0.04189303  0.85290434  0.40328874    -0.38200
N663        N  0.07537942  0.89767018  0.28147636    -0.37600
N664        N  0.98983554  0.80926052  0.37140016    -0.37700
C665        C  0.05161226  0.94039205  0.40558057    -0.04300
C666        C  0.04234458  0.96547897  0.40332983    -0.01400
C667        C  0.03019472  0.97746766  0.42409678     0.03600
C668        C  0.02646787  0.96429013  0.44749287    -0.04300
C669        C  0.03681002  0.93939096  0.44983037    -0.01400
C670        C  0.04976576  0.92791905  0.42922951     0.03600
C671        C  0.04527833  0.97911708  0.37947251     0.38200
C672        C  0.03389793  0.92496817  0.47314799     0.38200
C673        C  0.06282597  0.90394373  0.43294342     0.36600
C674        C  0.02226789  0.00373116  0.42113931     0.36600
N675        N  0.07379609  0.88517346  0.43623056    -0.38200
N676        N  0.01610218  0.02465193  0.41825442    -0.38200
N677        N  0.03178941  0.91318681  0.49161783    -0.37600
N678        N  0.04774462  0.99006989  0.36053764    -0.37700
C679        C  0.81626886  0.93629869  0.34123894    -0.04300
C680        C  0.79708524  0.94633986  0.35714958    -0.01400
C681        C  0.77888083  0.96337313  0.34723311     0.03600
C682        C  0.77985355  0.97081588  0.32147690    -0.04300
C683        C  0.79732909  0.95898149  0.30505771    -0.01400
C684        C  0.81503942  0.94131429  0.31470736     0.03600
C685        C  0.79617597  0.93944159  0.38386044     0.38200
C686        C  0.79840903  0.96649795  0.27849673     0.38200
C687        C  0.83265135  0.92955893  0.29716449     0.36600
C688        C  0.75970104  0.97411909  0.36374812     0.36600
N689        N  0.84626755  0.92011548  0.28277650    -0.38200
N690        N  0.74436548  0.98260108  0.37694347    -0.38200
N691        N  0.79926375  0.97256740  0.25735509    -0.37600
N692        N  0.79546968  0.93398904  0.40517786    -0.37700
C693        C  0.88874236  0.87782559  0.33362383    -0.04300
C694        C  0.88981021  0.85176130  0.33980801    -0.01400
C695        C  0.90698184  0.83565028  0.32705343     0.03600
C696        C  0.92345499  0.84573978  0.30846278    -0.04300
C697        C  0.92128684  0.87155998  0.30133017    -0.01400
C698        C  0.90387651  0.88752062  0.31378832     0.03600
C699        C  0.87401060  0.84182862  0.36002668     0.38200
C700        C  0.93804748  0.88203845  0.28216267     0.38200
C701        C  0.90263176  0.91432113  0.30726338     0.36600
C702        C  0.90866076  0.80900801  0.33397271     0.36600
N703        N  0.90162643  0.93570217  0.30211648    -0.38200
N704        N  0.90992937  0.78770585  0.33937172    -0.38200
N705        N  0.95155267  0.89047381  0.26704537    -0.37600
N706        N  0.86144707  0.83398420  0.37624029    -0.37700
C707        C  0.88471167  0.93741777  0.40551205    -0.04300
C708        C  0.89819918  0.92307750  0.42398659    -0.01400
C709        C  0.91084016  0.93543338  0.44433526     0.03600
C710        C  0.90930770  0.96211124  0.44709430    -0.04300
C711        C  0.89541356  0.97635208  0.42905180    -0.01400
C712        C  0.88382892  0.96425815  0.40805007     0.03600
C713        C  0.89861479  0.89552266  0.42256096     0.38200
C714        C  0.89211550  0.00350153  0.43252446     0.38200
C715        C  0.87190451  0.97981636  0.38856567     0.36600
C716        C  0.92613891  0.92076628  0.46201511     0.36600
N717        N  0.86248819  0.99222255  0.37299248    -0.38200
N718        N  0.93852903  0.90918338  0.47604860    -0.38200
N719        N  0.88893097  0.02509409  0.43518001    -0.37600
N720        N  0.89886512  0.87353550  0.42148203    -0.37700
C721        C  0.88245253  0.16820134  0.33749622    -0.04300
C722        C  0.88908032  0.16602684  0.31150021    -0.01400
C723        C  0.90668955  0.18313040  0.30077812     0.03600
C724        C  0.91687234  0.20301295  0.31564520    -0.04300
C725        C  0.90752483  0.20726395  0.34035532    -0.01400
C726        C  0.89063351  0.18972880  0.35141411     0.03600
C727        C  0.87923186  0.14537695  0.29608717     0.38200
C728        C  0.91617796  0.22918703  0.35470892     0.38200
C729        C  0.88224044  0.19345698  0.37740346     0.36600
C730        C  0.91564650  0.17926469  0.27500258     0.36600
N731        N  0.87560590  0.19629898  0.39816902    -0.38200
N732        N  0.92280470  0.17616047  0.25445343    -0.38200
N733        N  0.92299528  0.24677763  0.36605794    -0.37600
N734        N  0.87131189  0.12917651  0.28345627    -0.37700
C735        C  0.78603966  0.06292462  0.31862549    -0.04300
C736        C  0.81138077  0.06350242  0.30998994    -0.01400
C737        C  0.82905286  0.08009035  0.32130156     0.03600
C738        C  0.82117141  0.09747305  0.34008778    -0.04300
C739        C  0.79554565  0.09810150  0.34764037    -0.01400
C740        C  0.77805458  0.08054574  0.33721373     0.03600
C741        C  0.81950093  0.04615478  0.29014794     0.38200
C742        C  0.78749186  0.11613222  0.36683178     0.38200
C743        C  0.75220487  0.07976879  0.34640378     0.36600
C744        C  0.85576162  0.07783852  0.31513315     0.36600
N745        N  0.73155060  0.07907097  0.35370602    -0.38200
N746        N  0.87712791  0.07580812  0.31066167    -0.38200
N747        N  0.78113377  0.13056717  0.38214683    -0.37600
N748        N  0.82589206  0.03233107  0.27429447    -0.37700
C749        C  0.88577310  0.10534884  0.40646325    -0.04300
C750        C  0.87361530  0.10292014  0.43010333    -0.01400
C751        C  0.88567268  0.09017678  0.45050045     0.03600
C752        C  0.91036022  0.07969377  0.44754113    -0.04300
C753        C  0.92248011  0.08240617  0.42345107    -0.01400
C754        C  0.91043980  0.09563107  0.40337169     0.03600
C755        C  0.84875258  0.11419312  0.43356477     0.38200
C756        C  0.94720081  0.07135886  0.41859755     0.38200
C757        C  0.92334913  0.09886558  0.37919791     0.36600
C758        C  0.87169967  0.08692052  0.47396092     0.36600
N759        N  0.93367198  0.10166138  0.36000508    -0.38200
N760        N  0.86007364  0.08455721  0.49242994    -0.38200
N761        N  0.96673584  0.06244902  0.41412386    -0.37600
N762        N  0.82902572  0.12339748  0.43624824    -0.37700
C763        C  0.00760410  0.20434430  0.75721752    -0.04300
C764        C  0.01514452  0.20715323  0.73162904    -0.01400
C765        C  0.03257168  0.18995379  0.72068913     0.03600
C766        C  0.04254755  0.16952631  0.73517458    -0.04300
C767        C  0.03715059  0.16863454  0.76163544    -0.01400
C768        C  0.01943466  0.18566561  0.77241684     0.03600
C769        C  0.00398938  0.22714876  0.71623238     0.38200
C770        C  0.04881379  0.14974775  0.77797039     0.38200
C771        C  0.01198230  0.18277039  0.79882211     0.36600
C772        C  0.04031168  0.19343678  0.69446833     0.36600
N773        N  0.00599753  0.18046106  0.81985577    -0.38200
N774        N  0.04658741  0.19628820  0.67358799    -0.38200
N775        N  0.05810771  0.13524504  0.79167098    -0.37600
N776        N  0.99500514  0.24307164  0.70397250    -0.37700
C777        C  0.13896997  0.06584615  0.76163228    -0.04300
C778        C  0.14729776  0.08035651  0.74065111    -0.01400
C779        C  0.13058097  0.09771675  0.72869253     0.03600
C780        C  0.10520515  0.09966449  0.73695608    -0.04300
C781        C  0.09697417  0.08506997  0.75786717    -0.01400
C782        C  0.11410091  0.06919617  0.77086478     0.03600
C783        C  0.17251885  0.07635411  0.73058218     0.38200
C784        C  0.07025545  0.08411334  0.76425229     0.38200
C785        C  0.10566185  0.05499837  0.79294602     0.36600
C786        C  0.13912050  0.11284023  0.70731085     0.36600
N787        N  0.09893972  0.04380015  0.81062814    -0.38200
N788        N  0.14588832  0.12498428  0.69026819    -0.38200
N789        N  0.04889070  0.08281665  0.76899639    -0.37600
N790        N  0.19261403  0.07301652  0.72248866    -0.37700
C791        C  0.04514972  0.10575784  0.66553021    -0.04300
C792        C  0.01845221  0.10620082  0.66200877    -0.01400
C793        C  0.00717490  0.09367934  0.64103322     0.03600
C794        C  0.02196971  0.07907509  0.62415577    -0.04300
C795        C  0.04855388  0.07883457  0.62727923    -0.01400
C796        C  0.06012818  0.09261461  0.64735924     0.03600
C797        C  0.00211600  0.11869943  0.68032093     0.38200
C798        C  0.06402837  0.06381640  0.61015843     0.38200
C799        C  0.08757015  0.09376571  0.64866149     0.36600
C800        C  0.98038218  0.09713633  0.63609271     0.36600
N801        N  0.10947351  0.09471909  0.64941512    -0.38200
N802        N  0.95912751  0.10080273  0.63219321    -0.38200
N803        N  0.07630622  0.05170651  0.59656721    -0.37600
N804        N  0.98899107  0.12857646  0.69488834    -0.37700
C805        C  0.88256610  0.16412419  0.73410723    -0.04300
C806        C  0.89231788  0.18419899  0.71896241    -0.01400
C807        C  0.90838614  0.20278017  0.72976040     0.03600
C808        C  0.91520638  0.20137986  0.75566070    -0.04300
C809        C  0.90394300  0.18276218  0.77127795    -0.01400
C810        C  0.88731826  0.16450977  0.76070909     0.03600
C811        C  0.88604905  0.18584840  0.69212648     0.38200
C812        C  0.91080360  0.18139109  0.79802619     0.38200
C813        C  0.87625178  0.14566942  0.77743273     0.36600
C814        C  0.91865612  0.22297751  0.71403011     0.36600
N815        N  0.86747922  0.13124936  0.79150569    -0.38200
N816        N  0.92676536  0.23910522  0.70146684    -0.38200
N817        N  0.91635759  0.18043918  0.81932119    -0.37600
N818        N  0.88126216  0.18734747  0.67068462    -0.37700
C819        C  0.81852843  0.09478047  0.73471824    -0.04300
C820        C  0.79391886  0.09404879  0.72402796    -0.01400
C821        C  0.77552632  0.07711678  0.73380181     0.03600
C822        C  0.78155789  0.06126676  0.75459610    -0.04300
C823        C  0.80545386  0.06349313  0.76651527    -0.01400
C824        C  0.82409833  0.07968767  0.75625607     0.03600
C825        C  0.78785463  0.11010332  0.70242474     0.38200
C826        C  0.81126819  0.04778407  0.78849702     0.38200
C827        C  0.84965833  0.07878241  0.76640727     0.36600
C828        C  0.75078542  0.07519503  0.72189628     0.36600
N829        N  0.87003654  0.07741183  0.77449396    -0.38200
N830        N  0.73101506  0.07364703  0.71242129    -0.38200
N831        N  0.81561919  0.03514907  0.80600059    -0.37600
N832        N  0.78306716  0.12296285  0.68519940    -0.37700
C833        C  0.90734219  0.07593727  0.62471661    -0.04300
C834        C  0.90990141  0.06632131  0.65012611    -0.01400
C835        C  0.89699798  0.07788049  0.67058458     0.03600
C836        C  0.88167988  0.09936237  0.66654864    -0.04300
C837        C  0.87940764  0.10955573  0.64189413    -0.01400
C838        C  0.89199743  0.09802260  0.62108611     0.03600
C839        C  0.92586532  0.04458192  0.65602893     0.38200
C840        C  0.86391483  0.13201294  0.63792238     0.38200
C841        C  0.88941146  0.10974321  0.59623137     0.36600
C842        C  0.89998944  0.06798353  0.69625398     0.36600
N843        N  0.88716289  0.11930863  0.57651974    -0.38200
N844        N  0.90235897  0.06023272  0.71672982    -0.38200
N845        N  0.85156621  0.14990846  0.63465776    -0.37600
N846        N  0.93863024  0.02738690  0.66105677    -0.37700
C847        C  0.89042213  0.87723519  0.73734951    -0.04300
C848        C  0.90596256  0.88399696  0.75820590    -0.01400
C849        C  0.92191119  0.86571932  0.76979796     0.03600
C850        C  0.92305911  0.84060471  0.76027220    -0.04300
C851        C  0.90667232  0.83349266  0.74019808    -0.01400
C852        C  0.89028777  0.85168685  0.72888804     0.03600
C853        C  0.90675774  0.91019948  0.76675807     0.38200
C854        C  0.90742545  0.80765479  0.73062659     0.38200
C855        C  0.87364772  0.84423414  0.70820633     0.36600
C856        C  0.93806183  0.87298535  0.79096824     0.36600
N857        N  0.86030814  0.83818846  0.69176458    -0.38200
N858        N  0.95094931  0.87865842  0.80789606    -0.38200
N859        N  0.90809252  0.78697270  0.72312962    -0.37600
N860        N  0.90760273  0.93114592  0.77346267    -0.37700
C861        C  0.81781620  0.93783508  0.73264393    -0.04300
C862        C  0.79766553  0.94573742  0.71652030    -0.01400
C863        C  0.77799197  0.96136589  0.72597089     0.03600
C864        C  0.77810512  0.96931419  0.75159942    -0.04300
C865        C  0.79653019  0.95920011  0.76832099    -0.01400
C866        C  0.81626898  0.94357032  0.75897046     0.03600
C867        C  0.79716942  0.93796514  0.69004680     0.38200
C868        C  0.79604424  0.96619557  0.79501915     0.38200
C869        C  0.83572808  0.93492414  0.77645001     0.36600
C870        C  0.75784417  0.96987367  0.70918432     0.36600
N871        N  0.85098517  0.92809117  0.79075205    -0.38200
N872        N  0.74167518  0.97650691  0.69581934    -0.38200
N873        N  0.79543907  0.97170951  0.81631849    -0.37600
N874        N  0.79679249  0.93175371  0.66892981    -0.37700
C875        C  0.88402346  0.93900749  0.66591353    -0.04300
C876        C  0.87996064  0.96524965  0.66047105    -0.01400
C877        C  0.88981786  0.97634003  0.63806485     0.03600
C878        C  0.90566292  0.96227009  0.62180319    -0.04300
C879        C  0.90958477  0.93619772  0.62675422    -0.01400
C880        C  0.89844455  0.92448569  0.64829513     0.03600
C881        C  0.86669467  0.98155609  0.67827511     0.38200
C882        C  0.92570119  0.92150620  0.60996426     0.38200
C883        C  0.90158151  0.89730450  0.65176896     0.36600
C884        C  0.88249902  0.00196823  0.63092372     0.36600
N885        N  0.90413364  0.87559171  0.65433961    -0.38200
N886        N  0.87604722  0.02210540  0.62484409    -0.38200
N887        N  0.93862955  0.90980277  0.59663322    -0.37600
N888        N  0.85630062  0.99480542  0.69238871    -0.37700
C889        C  0.10589117  0.93984515  0.73614955    -0.04300
C890        C  0.12993326  0.94550430  0.72588915    -0.01400
C891        C  0.14635440  0.96251176  0.73861459     0.03600
C892        C  0.13903050  0.97360346  0.76187823    -0.04300
C893        C  0.11573038  0.96661561  0.77298946    -0.01400
C894        C  0.09895150  0.95025229  0.75992849     0.03600
C895        C  0.13763403  0.93417882  0.70201515     0.38200
C896        C  0.10852499  0.97724916  0.79737009     0.38200
C897        C  0.07371014  0.94598682  0.76996001     0.36600
C898        C  0.17040321  0.96948189  0.72731404     0.36600
N899        N  0.05351589  0.94288295  0.77792134    -0.38200
N900        N  0.18959554  0.97510543  0.71832447    -0.38200
N901        N  0.10278781  0.98548772  0.81692723    -0.37600
N902        N  0.14399507  0.92511929  0.68303217    -0.37700
C903        C  0.04777380  0.86598939  0.73127302    -0.04300
C904        C  0.03514462  0.84774313  0.71586110    -0.01400
C905        C  0.01881412  0.82961070  0.72696148     0.03600
C906        C  0.01463415  0.82967245  0.75342933    -0.04300
C907        C  0.02997809  0.84513853  0.76909641    -0.01400
C908        C  0.04699799  0.86273783  0.75814359     0.03600
C909        C  0.03883852  0.84746430  0.68852656     0.38200
C910        C  0.02722300  0.84404569  0.79655285     0.38200
C911        C  0.06304372  0.87755499  0.77497718     0.36600
C912        C  0.00548419  0.81136669  0.71110649     0.36600
N913        N  0.07598718  0.88871338  0.78885723    -0.38200
N914        N  0.99494181  0.79671260  0.69850237    -0.38200
N915        N  0.02517546  0.84298047  0.81844064    -0.37600
N916        N  0.04177195  0.84725554  0.66671933    -0.37700
C917        C  0.02182174  0.95906085  0.62363527    -0.04300
C918        C  0.04787746  0.95247948  0.62254798    -0.01400
C919        C  0.05957963  0.93927351  0.64292047     0.03600
C920        C  0.04566706  0.93285756  0.66489675    -0.04300
C921        C  0.01966273  0.93900775  0.66596747    -0.01400
C922        C  0.00782435  0.95200180  0.64559976     0.03600
C923        C  0.06327578  0.96030524  0.60113302     0.38200
C924        C  0.00509861  0.93265425  0.68850101     0.38200
C925        C  0.98110594  0.95802815  0.64770291     0.36600
C926        C  0.08589615  0.93164765  0.64086531     0.36600
N927        N  0.95987411  0.96284815  0.65015752    -0.38200
N928        N  0.10681742  0.92544260  0.63877995    -0.38200
N929        N  0.99348830  0.92755470  0.70643537    -0.37600
N930        N  0.07601677  0.96646955  0.58435309    -0.37700
C931        C  0.26897601  0.10977602  0.18550756    -0.04300
C932        C  0.28287367  0.10012044  0.20646629    -0.01400
C933        C  0.27125468  0.08341956  0.22393078     0.03600
C934        C  0.24584405  0.07586986  0.22037594    -0.04300
C935        C  0.23122500  0.08748197  0.20111114    -0.01400
C936        C  0.24253498  0.10493628  0.18416808     0.03600
C937        C  0.30925059  0.10712290  0.20996268     0.38200
C938        C  0.20501147  0.07988199  0.19741620     0.38200
C939        C  0.22687632  0.11680277  0.16482530     0.36600
C940        C  0.28575112  0.07283870  0.24488847     0.36600
N941        N  0.21384183  0.12640510  0.14991780    -0.38200
N942        N  0.29720422  0.06435194  0.26166844    -0.38200
N943        N  0.18415606  0.07372620  0.19438398    -0.37600
N944        N  0.33029043  0.11271668  0.21278549    -0.37700
C945        C  0.24470845  0.20451716  0.08084861    -0.04300
C946        C  0.23636580  0.17907680  0.08276804    -0.01400
C947        C  0.24914577  0.16183294  0.09879977     0.03600
C948        C  0.26964189  0.17015317  0.11399698    -0.04300
C949        C  0.27676639  0.19604913  0.11359984    -0.01400
C950        C  0.26432851  0.21321020  0.09697693     0.03600
C951        C  0.21516039  0.17044744  0.06737653     0.38200
C952        C  0.29732501  0.20482423  0.12970804     0.38200
C953        C  0.27205017  0.23964327  0.09590126     0.36600
C954        C  0.24230602  0.13509849  0.09832385     0.36600
N955        N  0.27798814  0.26082090  0.09508945    -0.38200
N956        N  0.23704089  0.11373179  0.09779146    -0.38200
N957        N  0.31374900  0.21186091  0.14254955    -0.37600
N958        N  0.19816115  0.16364955  0.05518102    -0.37700
C959        C  0.33720806  0.10584069  0.12165459    -0.04300
C960        C  0.35930575  0.11910795  0.11436120    -0.01400
C961        C  0.37944797  0.10626148  0.10211699     0.03600
C962        C  0.37814496  0.07967967  0.09757370    -0.04300
C963        C  0.35629235  0.06627838  0.10575062    -0.01400
C964        C  0.33594705  0.07927313  0.11746917     0.03600
C965        C  0.36169585  0.14598743  0.12014571     0.38200
C966        C  0.35464982  0.03892054  0.10258385     0.38200
C967        C  0.31332837  0.06522563  0.12452952     0.36600
C968        C  0.40089515  0.12091738  0.09308909     0.36600
N969        N  0.29532558  0.05400089  0.13018097    -0.38200
N970        N  0.41778574  0.13293734  0.08588441    -0.38200
N971        N  0.35294951  0.01710988  0.10023053    -0.37600
N972        N  0.36373508  0.16737257  0.12494897    -0.37700
C973        C  0.26769145  0.94849494  0.18032805    -0.04300
C974        C  0.24947369  0.96575597  0.17098521    -0.01400
C975        C  0.23769169  0.98299558  0.18760399     0.03600
C976        C  0.24463609  0.98368270  0.21359729    -0.04300
C977        C  0.26254930  0.96607389  0.22306552    -0.01400
C978        C  0.27408458  0.94848592  0.20640373     0.03600
C979        C  0.24425766  0.96711892  0.14388717     0.38200
C980        C  0.26979687  0.96674398  0.24967754     0.38200
C981        C  0.29336609  0.93119152  0.21576730     0.36600
C982        C  0.21925578  0.00097298  0.17767552     0.36600
N983        N  0.30889068  0.91747886  0.22313462    -0.38200
N984        N  0.20471615  0.01542562  0.16972275    -0.38200
N985        N  0.27545590  0.96720855  0.27095911    -0.37600
N986        N  0.24034842  0.96846933  0.12225439    -0.37700
C987        C  0.24272110  0.83910930  0.08959807    -0.04300
C988        C  0.26710249  0.83462130  0.09965537    -0.01400
C989        C  0.27902544  0.85318325  0.11499533     0.03600
C990        C  0.26606299  0.87583072  0.12144965    -0.04300
C991        C  0.24030557  0.87854517  0.11410256    -0.01400
C992        C  0.22900190  0.86063292  0.09759060     0.03600
C993        C  0.28020968  0.81125517  0.09329883     0.38200
C994        C  0.22557654  0.90033459  0.12218353     0.38200
C995        C  0.20389898  0.86531852  0.08722892     0.36600
C996        C  0.30480984  0.84912574  0.12372028     0.36600
N997        N  0.18397886  0.86920165  0.07881247    -0.38200
N998        N  0.32543045  0.84591350  0.13056432    -0.38200
N999        N  0.21324147  0.91729978  0.12868341    -0.37600
N1000       N  0.29047501  0.79244900  0.08840223    -0.37700
C1001       C  0.33667474  0.93775011  0.11914447    -0.04300
C1002       C  0.33728742  0.93997615  0.09233850    -0.01400
C1003       C  0.35840304  0.95108519  0.08013065     0.03600
C1004       C  0.37864005  0.96153546  0.09448621    -0.04300
C1005       C  0.37814611  0.95903032  0.12131575    -0.01400
C1006       C  0.35749360  0.94692769  0.13349546     0.03600
C1007       C  0.31566591  0.93193399  0.07716977     0.38200
C1008       C  0.39840706  0.96955220  0.13674479     0.38200
C1009       C  0.35793599  0.94360464  0.16090622     0.36600
C1010       C  0.35966474  0.95054404  0.05262386     0.36600
N1011       N  0.35840298  0.94091148  0.18275333    -0.38200
N1012       N  0.36041552  0.94938275  0.03068348    -0.38200
N1013       N  0.41426302  0.97778459  0.14957776    -0.37600
N1014       N  0.29836302  0.92564445  0.06512080    -0.37700
C1015       C  0.26037282  0.94131989  0.89816750    -0.04300
C1016       C  0.26886594  0.94375830  0.87285997    -0.01400
C1017       C  0.25634999  0.96046017  0.85592811     0.03600
C1018       C  0.23485816  0.97414132  0.86407205    -0.04300
C1019       C  0.22491506  0.96966011  0.88854776    -0.01400
C1020       C  0.23804472  0.95393726  0.90583682     0.03600
C1021       C  0.29089517  0.92958160  0.86455674     0.38200
C1022       C  0.20172990  0.98226319  0.89625585     0.38200
C1023       C  0.22980890  0.95264238  0.93210875     0.36600
C1024       C  0.26622107  0.96452102  0.83056116     0.36600
N1025       N  0.22333108  0.95191360  0.95310813    -0.38200
N1026       N  0.27409233  0.96776875  0.81029938    -0.38200
N1027       N  0.18309235  0.99213514  0.90225529    -0.37600
N1028       N  0.30841221  0.91809312  0.85804736    -0.37700
C1029       C  0.26872453  0.87289506  0.96224976    -0.04300
C1030       C  0.28448906  0.85594513  0.97617753    -0.01400
C1031       C  0.27386171  0.83843836  0.99353609     0.03600
C1032       C  0.24735199  0.83710407  0.99692578    -0.04300
C1033       C  0.23145468  0.85196114  0.98126639    -0.01400
C1034       C  0.24195235  0.86941632  0.96375103     0.03600
C1035       C  0.31175488  0.85610284  0.97276193     0.38200
C1036       C  0.20413344  0.85051970  0.98427817     0.38200
C1037       C  0.22462089  0.88413533  0.94814628     0.36600
C1038       C  0.29033758  0.82260546  0.00906248     0.36600
N1039       N  0.21035360  0.89535435  0.93570642    -0.38200
N1040       N  0.30336853  0.81018114  0.02171957    -0.38200
N1041       N  0.18235370  0.84926620  0.98651329    -0.37600
N1042       N  0.33353879  0.85581153  0.97031340    -0.37700
C1043       C  0.33372114  0.94105062  0.95556796    -0.04300
C1044       C  0.35797932  0.93001184  0.95402022    -0.01400
C1045       C  0.37936934  0.94250584  0.96464520     0.03600
C1046       C  0.37683669  0.96676222  0.97648385    -0.04300
C1047       C  0.35253253  0.97855739  0.97591313    -0.01400
C1048       C  0.33115388  0.96545284  0.96632561     0.03600
C1049       C  0.36103429  0.90606826  0.94064846     0.38200
C1050       C  0.34917517  0.00461171  0.98436225     0.38200
C1051       C  0.30619627  0.97694049  0.96818939     0.36600
C1052       C  0.40371981  0.92988894  0.96320422     0.36600
N1053       N  0.28631180  0.98605907  0.96982928    -0.38200
N1054       N  0.42285957  0.91932260  0.96145974    -0.38200
N1055       N  0.34599440  0.02538501  0.99086505    -0.37600
N1056       N  0.36350926  0.88714020  0.92970516    -0.37700
C1057       C  0.27026297  0.17337414  0.95381722    -0.04300
C1058       C  0.24361881  0.17536500  0.95715807    -0.01400
C1059       C  0.23356314  0.19244745  0.97521228     0.03600
C1060       C  0.24967201  0.20922341  0.98858414    -0.04300
C1061       C  0.27565933  0.21000212  0.98242858    -0.01400
C1062       C  0.28597837  0.19208739  0.96529975     0.03600
C1063       C  0.22613465  0.15997405  0.94245048     0.38200
C1064       C  0.29186506  0.22890356  0.99431280     0.38200
C1065       C  0.31277062  0.19325429  0.95928419     0.36600
C1066       C  0.20673209  0.19155508  0.98124955     0.36600
N1067       N  0.33412914  0.19429104  0.95444052    -0.38200
N1068       N  0.18537282  0.19089672  0.98614586    -0.38200
N1069       N  0.30474615  0.24407796  0.00370471    -0.37600
N1070       N  0.21162277  0.14852054  0.93051789    -0.37700
C1071       C  0.23701875  0.06674498  0.86190636    -0.04300
C1072       C  0.22718211  0.07278802  0.88609064    -0.01400
C1073       C  0.24067096  0.08909577  0.90259221     0.03600
C1074       C  0.26365042  0.10036230  0.89463456    -0.04300
C1075       C  0.27239255  0.09597770  0.86964234    -0.01400
C1076       C  0.25917547  0.07907733  0.85336921     0.03600
C1077       C  0.20362234  0.06125590  0.89437139     0.38200
C1078       C  0.29514171  0.10860007  0.86080841     0.38200
C1079       C  0.26871770  0.07367350  0.82812780     0.36600
C1080       C  0.23186297  0.09260315  0.92846287     0.36600
N1081       N  0.27615595  0.06936443  0.80790132    -0.38200
N1082       N  0.22484668  0.09514618  0.94914111    -0.38200
N1083       N  0.31321323  0.11878710  0.85365593    -0.37600
N1084       N  0.18473984  0.05218594  0.90088479    -0.37700
C1085       C  0.33544429  0.10592006  0.95504005    -0.04300
C1086       C  0.33679936  0.10502206  0.98195662    -0.01400
C1087       C  0.35751820  0.09320524  0.99431125     0.03600
C1088       C  0.37686964  0.08126796  0.98012784    -0.04300
C1089       C  0.37557848  0.08215374  0.95323120    -0.01400
C1090       C  0.35526316  0.09475462  0.94080351     0.03600
C1091       C  0.31647730  0.11557023  0.99723400     0.38200
C1092       C  0.39460768  0.06928106  0.93814018     0.38200
C1093       C  0.35532122  0.09692770  0.91330567     0.36600
C1094       C  0.35914978  0.09413671  0.02179749     0.36600
N1095       N  0.35563838  0.09876673  0.89137546    -0.38200
N1096       N  0.36011755  0.09533523  0.04372929    -0.38200
N1097       N  0.40950626  0.05893479  0.92580287    -0.37600
N1098       N  0.30030247  0.12398164  0.00943554    -0.37700
C1099       C  0.67790839  0.20540955  0.09077835    -0.04300
C1100       C  0.69344952  0.19106296  0.10727070    -0.01400
C1101       C  0.68249772  0.17508996  0.12584572     0.03600
C1102       C  0.65576144  0.17183464  0.12675759    -0.04300
C1103       C  0.64036682  0.18855712  0.11218897    -0.01400
C1104       C  0.65141805  0.20516964  0.09427379     0.03600
C1105       C  0.72073255  0.19113686  0.10373892     0.38200
C1106       C  0.61305270  0.18868422  0.11538978     0.38200
C1107       C  0.63542768  0.22104464  0.07833204     0.36600
C1108       C  0.69914562  0.16181655  0.14334892     0.36600
N1109       N  0.62267768  0.23360055  0.06551982    -0.38200
N1110       N  0.71279540  0.15187558  0.15746573    -0.38200
N1111       N  0.59126371  0.18883648  0.11786500    -0.37600
N1112       N  0.74245080  0.19118455  0.10073230    -0.37700
C1113       C  0.68416234  0.06701188  0.22297310    -0.04300
C1114       C  0.69634996  0.07410629  0.20020959    -0.01400
C1115       C  0.68410837  0.09045041  0.18284583     0.03600
C1116       C  0.66036670  0.10120694  0.18897750    -0.04300
C1117       C  0.64930392  0.09595006  0.21281942    -0.01400
C1118       C  0.66089929  0.07842300  0.22954051     0.03600
C1119       C  0.72086528  0.06333682  0.19400226     0.38200
C1120       C  0.62572840  0.10813474  0.21989166     0.38200
C1121       C  0.64826964  0.07098452  0.25283883     0.36600
C1122       C  0.69476213  0.09404360  0.15768811     0.36600
N1123       N  0.63815688  0.06487673  0.27136178    -0.38200
N1124       N  0.70312580  0.09652721  0.13751453    -0.38200
N1125       N  0.60704774  0.11801056  0.22575303    -0.37600
N1126       N  0.74053090  0.05496081  0.18912748    -0.37700
C1127       C  0.55300566  0.07725025  0.09740251    -0.04300
C1128       C  0.57426712  0.08701091  0.08413620    -0.01400
C1129       C  0.59422035  0.09914244  0.09741770     0.03600
C1130       C  0.59309860  0.10219585  0.12412977    -0.04300
C1131       C  0.57227071  0.09185736  0.13748312    -0.01400
C1132       C  0.55252578  0.07924794  0.12426262     0.03600
C1133       C  0.57589214  0.08476078  0.05669260     0.38200
C1134       C  0.57082513  0.09438668  0.16490203     0.38200
C1135       C  0.53237217  0.06718945  0.13860091     0.36600
C1136       C  0.61652562  0.10744668  0.08355257     0.36600
N1137       N  0.51650860  0.05741381  0.15019899    -0.38200
N1138       N  0.63437246  0.11395445  0.07257488    -0.38200
N1139       N  0.56941418  0.09620786  0.18678069    -0.37600
N1140       N  0.57772374  0.08291533  0.03485261    -0.37700
C1141       C  0.66862516  0.15823491  0.96525774    -0.04300
C1142       C  0.68986859  0.15248666  0.98061649    -0.01400
C1143       C  0.70016317  0.17114558  0.99696761     0.03600
C1144       C  0.68851212  0.19522943  0.99906037    -0.04300
C1145       C  0.66779300  0.20125800  0.98314992    -0.01400
C1146       C  0.65825369  0.18300352  0.96587377     0.03600
C1147       C  0.69970540  0.12676151  0.98143974     0.38200
C1148       C  0.65535729  0.22569958  0.98572989     0.38200
C1149       C  0.63740369  0.18951716  0.94906737     0.36600
C1150       C  0.72192980  0.16514253  0.01280483     0.36600
N1151       N  0.62085603  0.19472779  0.93553887    -0.38200
N1152       N  0.73932210  0.16042722  0.02541616    -0.38200
N1153       N  0.64538208  0.24515677  0.98801267    -0.37600
N1154       N  0.70740234  0.10618974  0.98263331    -0.37700
C1155       C  0.68631235  0.06262350  0.85601613    -0.04300
C1156       C  0.66098705  0.07108517  0.85475299    -0.01400
C1157       C  0.65136381  0.08770903  0.87345453     0.03600
C1158       C  0.66683259  0.09564146  0.89412299    -0.04300
C1159       C  0.69294660  0.08909913  0.89384649    -0.01400
C1160       C  0.70255417  0.07266226  0.87485875     0.03600
C1161       C  0.64449022  0.06177101  0.83467927     0.38200
C1162       C  0.70998404  0.09796591  0.91359458     0.38200
C1163       C  0.72893028  0.06486362  0.87548214     0.36600
C1164       C  0.62535446  0.09647449  0.87137522     0.36600
N1165       N  0.74997433  0.05867578  0.87577162    -0.38200
N1166       N  0.60460899  0.10344967  0.86978128    -0.38200
N1167       N  0.72423175  0.10487690  0.92887253    -0.37600
N1168       N  0.63127392  0.05434875  0.81871285    -0.37700
C1169       C  0.59510286  0.10035483  0.95475447    -0.04300
C1170       C  0.58696260  0.07518338  0.94859378    -0.01400
C1171       C  0.56458164  0.06504469  0.95930903     0.03600
C1172       C  0.55028745  0.07932238  0.97675493    -0.04300
C1173       C  0.55680080  0.10490129  0.98127352    -0.01400
C1174       C  0.57890936  0.11546898  0.97028972     0.03600
C1175       C  0.60146454  0.05903988  0.93163193     0.38200
C1176       C  0.54092685  0.12026505  0.99771799     0.38200
C1177       C  0.58432026  0.14214421  0.97480969     0.36600
C1178       C  0.55560217  0.04007819  0.95161724     0.36600
N1179       N  0.58827572  0.16346062  0.97863084    -0.38200
N1180       N  0.54825067  0.02037584  0.94511378    -0.38200
N1181       N  0.52824598  0.13255226  0.01076313    -0.37600
N1182       N  0.61274742  0.04601089  0.91800864    -0.37700
C1183       C  0.66090870  0.87487589  0.95994233    -0.04300
C1184       C  0.65031746  0.85032644  0.96245759    -0.01400
C1185       C  0.66157354  0.83240950  0.97902605     0.03600
C1186       C  0.68301477  0.83922338  0.99358614    -0.04300
C1187       C  0.69414013  0.86343521  0.99033216    -0.01400
C1188       C  0.68301813  0.88127938  0.97373243     0.03600
C1189       C  0.62711344  0.84397196  0.94904386     0.38200
C1190       C  0.71614847  0.87052422  0.00540075     0.38200
C1191       C  0.69287768  0.90704255  0.97284843     0.36600
C1192       C  0.65055911  0.80732024  0.98197001     0.36600
N1193       N  0.70058122  0.92765587  0.97248984    -0.38200
N1194       N  0.64192554  0.78721607  0.98428255    -0.38200
N1195       N  0.73360686  0.87616783  0.01753448    -0.37600
N1196       N  0.60845491  0.83892986  0.93856331    -0.37700
C1197       C  0.65987445  0.93717524  0.88916767    -0.04300
C1198       C  0.64438220  0.94866687  0.87032015    -0.01400
C1199       C  0.65501896  0.96535508  0.85226116     0.03600
C1200       C  0.68135765  0.96996604  0.85210725    -0.04300
C1201       C  0.69722942  0.95590542  0.86854452    -0.01400
C1202       C  0.68660533  0.93956288  0.88703742     0.03600
C1203       C  0.61737946  0.94342690  0.86945149     0.38200
C1204       C  0.72448412  0.95954169  0.86752097     0.38200
C1205       C  0.70346651  0.92639445  0.90441063     0.36600
C1206       C  0.63867477  0.97900467  0.83470332     0.36600
N1207       N  0.71740561  0.91588934  0.91780749    -0.38200
N1208       N  0.62562226  0.99004591  0.82084425    -0.38200
N1209       N  0.74621889  0.96233367  0.86653923    -0.37600
N1210       N  0.59586962  0.93914407  0.86872960    -0.37700
C1211       C  0.59412880  0.93935644  0.95550641    -0.04300
C1212       C  0.59787698  0.96296238  0.96753278    -0.01400
C1213       C  0.57761445  0.97529413  0.97995149     0.03600
C1214       C  0.55264858  0.96467425  0.97946393    -0.04300
C1215       C  0.54919672  0.94078923  0.96710104    -0.01400
C1216       C  0.56991109  0.92814163  0.95564106     0.03600
C1217       C  0.62298545  0.97435222  0.96766851     0.38200
C1218       C  0.52466941  0.92837462  0.96659776     0.38200
C1219       C  0.56632067  0.90344242  0.94381756     0.36600
C1220       C  0.58315590  0.99884070  0.99333396     0.36600
N1221       N  0.56350008  0.88370802  0.93448048    -0.38200
N1222       N  0.58790467  0.01739373  0.00421291    -0.38200
N1223       N  0.50532574  0.91802944  0.96577531    -0.37600
N1224       N  0.64296717  0.98344610  0.96773388    -0.37700
C1225       C  0.66330380  0.94245636  0.18228148    -0.04300
C1226       C  0.65170885  0.94467943  0.20638198    -0.01400
C1227       C  0.66205415  0.96116162  0.22497561     0.03600
C1228       C  0.68445053  0.97485551  0.21981696    -0.04300
C1229       C  0.69694169  0.97124010  0.19639432    -0.01400
C1230       C  0.68591933  0.95592189  0.17734486     0.03600
C1231       C  0.62849208  0.93088071  0.21157215     0.38200
C1232       C  0.72042842  0.98469273  0.19135338     0.38200
C1233       C  0.69624116  0.95661816  0.15183260     0.36600
C1234       C  0.64907350  0.96502588  0.24891326     0.36600
N1235       N  0.70433731  0.95802357  0.13144977    -0.38200
N1236       N  0.63870673  0.96818365  0.26801559    -0.38200
N1237       N  0.73921822  0.99534348  0.18746790    -0.37600
N1238       N  0.60993383  0.91987031  0.21560011    -0.37700
C1239       C  0.68196166  0.83505378  0.08587942    -0.04300
C1240       C  0.65672354  0.83293834  0.09430270    -0.01400
C1241       C  0.64678549  0.85094791  0.11152215     0.03600
C1242       C  0.66178159  0.87171785  0.11981355    -0.04300
C1243       C  0.68802102  0.87166317  0.11394958    -0.01400
C1244       C  0.69793930  0.85357052  0.09681379     0.03600
C1245       C  0.64076934  0.81269517  0.08447604     0.38200
C1246       C  0.70504996  0.89038247  0.12474498     0.38200
C1247       C  0.72431002  0.85495976  0.08911040     0.36600
C1248       C  0.62142925  0.84744438  0.12137558     0.36600
N1249       N  0.74531485  0.85584886  0.08290201    -0.38200
N1250       N  0.60137566  0.84383601  0.12943267    -0.38200
N1251       N  0.71947858  0.90456500  0.13334812    -0.37600
N1252       N  0.62806478  0.79654336  0.07660128    -0.37700
C1253       C  0.59614561  0.93901419  0.11754482    -0.04300
C1254       C  0.57204962  0.92746393  0.11683517    -0.01400
C1255       C  0.55132956  0.93967854  0.10469406     0.03600
C1256       C  0.55421291  0.96417327  0.09347067    -0.04300
C1257       C  0.57870462  0.97573162  0.09451195    -0.01400
C1258       C  0.59935172  0.96315210  0.10629007     0.03600
C1259       C  0.56818327  0.90338009  0.12968026     0.38200
C1260       C  0.58317792  0.00083388  0.08388696     0.38200
C1261       C  0.62421980  0.97506605  0.10654699     0.36600
C1262       C  0.52728600  0.92635007  0.10350045     0.36600
N1263       N  0.64400179  0.98459396  0.10674065    -0.38200
N1264       N  0.50827748  0.91537768  0.10279488    -0.38200
N1265       N  0.58719856  0.02071991  0.07534765    -0.37600
N1266       N  0.56465299  0.88437225  0.14017401    -0.37700
C1267       C  0.01338031  0.30234047  0.22247478    -0.04300
C1268       C  0.02640186  0.28599504  0.20576366    -0.01400
C1269       C  0.04358812  0.29609273  0.18789605     0.03600
C1270       C  0.04780533  0.32273682  0.18675026    -0.04300
C1271       C  0.03757422  0.33835261  0.20613037    -0.01400
C1272       C  0.01997693  0.32828338  0.22355483     0.03600
C1273       C  0.02045433  0.25902044  0.20555848     0.38200
C1274       C  0.04484258  0.36491267  0.20796039     0.38200
C1275       C  0.00740057  0.34487834  0.24158201     0.36600
C1276       C  0.05535771  0.27900137  0.16981449     0.36600
N1277       N  0.99721005  0.35811579  0.25584626    -0.38200
N1278       N  0.06469400  0.26502394  0.15566591    -0.38200
N1279       N  0.05074347  0.38606207  0.20951896    -0.37600
N1280       N  0.01561864  0.23754565  0.20556044    -0.37700
C1281       C  0.14098855  0.29828156  0.07886629    -0.04300
C1282       C  0.14878311  0.31806519  0.09528213    -0.01400
C1283       C  0.13135970  0.32892001  0.11249016     0.03600
C1284       C  0.10614947  0.32001167  0.11332095    -0.04300
C1285       C  0.09869352  0.29944092  0.09776795    -0.01400
C1286       C  0.11614316  0.28843950  0.08079186     0.03600
C1287       C  0.17434621  0.32801585  0.09361159     0.38200
C1288       C  0.07256566  0.29080799  0.09787534     0.38200
C1289       C  0.10822009  0.26780533  0.06422788     0.36600
C1290       C  0.13901178  0.34993265  0.12864719     0.36600
N1291       N  0.10205968  0.25141776  0.05087348    -0.38200
N1292       N  0.14500485  0.36674266  0.14154277    -0.38200
N1293       N  0.05168076  0.28406468  0.09775891    -0.37600
N1294       N  0.19477305  0.33593515  0.09236300    -0.37700
C1295       C  0.01793642  0.43006440  0.09603150    -0.04300
C1296       C  0.04471597  0.42984724  0.09824176    -0.01400
C1297       C  0.05727726  0.40939437  0.11040257     0.03600
C1298       C  0.04333742  0.38865425  0.12023267    -0.04300
C1299       C  0.01659645  0.38885711  0.11814908    -0.01400
C1300       C  0.00402744  0.40936235  0.10613724     0.03600
C1301       C  0.05967189  0.44987188  0.08666890     0.38200
C1302       C  0.00186128  0.36747804  0.12751263     0.38200
C1303       C  0.97663749  0.40888016  0.10430865     0.36600
C1304       C  0.08465525  0.40995220  0.11311893     0.36600
N1305       N  0.95478832  0.40781835  0.10302011    -0.38200
N1306       N  0.10648319  0.41042827  0.11530296    -0.38200
N1307       N  0.99010002  0.35047370  0.13500095    -0.37600
N1308       N  0.07189179  0.46556264  0.07732328    -0.37700
C1309       C  0.11201913  0.32483609  0.95166330    -0.04300
C1310       C  0.11344939  0.29805645  0.95505078    -0.01400
C1311       C  0.13067641  0.28760465  0.97285741     0.03600
C1312       C  0.14741912  0.30357010  0.98645110    -0.04300
C1313       C  0.14848963  0.32966357  0.98037904    -0.01400
C1314       C  0.13098046  0.34025766  0.96301906     0.03600
C1315       C  0.09694066  0.28100607  0.94101209     0.38200
C1316       C  0.16699072  0.34581227  0.99291901     0.38200
C1317       C  0.13255776  0.36712300  0.95687954     0.36600
C1318       C  0.12997415  0.26058040  0.97848106     0.36600
N1319       N  0.13380049  0.38853109  0.95190082    -0.38200
N1320       N  0.12937275  0.23903820  0.98297421    -0.38200
N1321       N  0.18175572  0.35870181  0.00291427    -0.37600
N1322       N  0.08430536  0.26703285  0.92962301    -0.37700
C1323       C  0.00241096  0.29814073  0.86077592    -0.04300
C1324       C  0.00640942  0.28898016  0.88573138    -0.01400
C1325       C  0.02477295  0.30040486  0.90150955     0.03600
C1326       C  0.03904352  0.32124849  0.89253025    -0.04300
C1327       C  0.03598144  0.32960726  0.86720900    -0.01400
C1328       C  0.01781646  0.31791647  0.85125552     0.03600
C1329       C  0.99074326  0.26853082  0.89556728     0.38200
C1330       C  0.05112608  0.35060182  0.85782305     0.38200
C1331       C  0.01434528  0.32675010  0.82535370     0.36600
C1332       C  0.02789918  0.29168165  0.92752990     0.36600
N1333       N  0.01166151  0.33359823  0.80459773    -0.38200
N1334       N  0.03039142  0.28474030  0.94828123    -0.38200
N1335       N  0.06323909  0.36735328  0.85035014    -0.37600
N1336       N  0.97810516  0.25236942  0.90345341    -0.37700
C1337       C  0.02082101  0.43178652  0.97922736    -0.04300
C1338       C  0.02986455  0.41041917  0.99298191    -0.01400
C1339       C  0.04229404  0.39028798  0.98035757     0.03600
C1340       C  0.04591645  0.39109564  0.95374260    -0.04300
C1341       C  0.03704234  0.41238761  0.93993054    -0.01400
C1342       C  0.02447258  0.43253083  0.95253327     0.03600
C1343       C  0.02661971  0.40885263  0.02029024     0.38200
C1344       C  0.04130326  0.41387134  0.91272092     0.38200
C1345       C  0.01418607  0.45337124  0.93766608     0.36600
C1346       C  0.05062032  0.36825566  0.99483503     0.36600
N1347       N  0.00591230  0.46984150  0.92563193    -0.38200
N1348       N  0.05734534  0.35070636  0.00631022    -0.38200
N1349       N  0.04477555  0.41514106  0.89103348    -0.37600
N1350       N  0.02419630  0.40686943  0.04204603    -0.37700
C1351       C  0.81488480  0.32238372  0.96329308    -0.04300
C1352       C  0.78907268  0.32951796  0.96326477    -0.01400
C1353       C  0.77218702  0.31881701  0.98122197     0.03600
C1354       C  0.78089193  0.30032388  0.99867283    -0.04300
C1355       C  0.80635258  0.29212289  0.99758408    -0.01400
C1356       C  0.82337114  0.30344199  0.98033851     0.03600
C1357       C  0.78006459  0.34825334  0.94514802     0.38200
C1358       C  0.81530378  0.27290495  0.01528936     0.38200
C1359       C  0.85002552  0.29674334  0.98127322     0.36600
C1360       C  0.74625808  0.32777624  0.98272189     0.36600
N1361       N  0.87132880  0.29159785  0.98220790    -0.38200
N1362       N  0.72558632  0.33498011  0.98409604    -0.38200
N1363       N  0.82223690  0.25765389  0.02957733    -0.37600
N1364       N  0.77281665  0.36310205  0.93059253    -0.37700
C1365       C  0.87469762  0.32082692  0.89082972    -0.04300
C1366       C  0.87983909  0.29435077  0.89203334    -0.01400
C1367       C  0.89758315  0.28327556  0.87520742     0.03600
C1368       C  0.90967558  0.29827227  0.85657372    -0.04300
C1369       C  0.90207880  0.32377842  0.85325748    -0.01400
C1370       C  0.88454773  0.33495798  0.87014059     0.03600
C1371       C  0.86794843  0.27851036  0.91116262     0.38200
C1372       C  0.91330176  0.33885024  0.83311191     0.38200
C1373       C  0.87668437  0.36110774  0.86619580     0.36600
C1374       C  0.90477654  0.25681321  0.87817605     0.36600
N1375       N  0.87029037  0.38191742  0.86297567    -0.38200
N1376       N  0.91062033  0.23572472  0.88047939    -0.38200
N1377       N  0.92231004  0.35083867  0.81703935    -0.37600
N1378       N  0.85830490  0.26558920  0.92610676    -0.37700
C1379       C  0.87786985  0.39091285  0.95300956    -0.04300
C1380       C  0.90460680  0.39059765  0.95549406    -0.01400
C1381       C  0.91755319  0.41123700  0.96688566     0.03600
C1382       C  0.90409484  0.43268539  0.97594088    -0.04300
C1383       C  0.87742674  0.43339261  0.97260437    -0.01400
C1384       C  0.86444916  0.41267184  0.96123248     0.03600
C1385       C  0.91901988  0.36871339  0.94690312     0.38200
C1386       C  0.86300419  0.45499577  0.98170892     0.38200
C1387       C  0.83725396  0.41411067  0.95735638     0.36600
C1388       C  0.94494555  0.41031555  0.96882811     0.36600
N1389       N  0.81557880  0.41535601  0.95415304    -0.38200
N1390       N  0.96678529  0.40906001  0.97015484    -0.38200
N1391       N  0.85130287  0.47213754  0.98889654    -0.37600
N1392       N  0.93056234  0.35137631  0.93989894    -0.37700
C1393       C  0.88528990  0.32232172  0.18222498    -0.04300
C1394       C  0.89855471  0.30036927  0.17438392    -0.01400
C1395       C  0.91629815  0.28883929  0.19085973     0.03600
C1396       C  0.92114600  0.29945062  0.21506119    -0.04300
C1397       C  0.90732172  0.32088307  0.22318793    -0.01400
C1398       C  0.88937595  0.33226751  0.20682501     0.03600
C1399       C  0.89530438  0.29075578  0.14870289     0.38200
C1400       C  0.91254294  0.33189527  0.24794380     0.38200
C1401       C  0.87559523  0.35462533  0.21504002     0.36600
C1402       C  0.93048185  0.26674202  0.18251805     0.36600
N1403       N  0.86459125  0.37243878  0.22168956    -0.38200
N1404       N  0.94183416  0.24913181  0.17589910    -0.38200
N1405       N  0.91688037  0.34059851  0.26769966    -0.37600
N1406       N  0.89282396  0.28325747  0.12814674    -0.37700
C1407       C  0.81018351  0.32637414  0.12540500    -0.04300
C1408       C  0.80793694  0.29963567  0.12246879    -0.01400
C1409       C  0.79038043  0.28944214  0.10485323     0.03600
C1410       C  0.77414880  0.30571886  0.09094712    -0.04300
C1411       C  0.77372796  0.33188618  0.09681120    -0.01400
C1412       C  0.79144259  0.34214008  0.11417959     0.03600
C1413       C  0.82402654  0.28237541  0.13672673     0.38200
C1414       C  0.75578741  0.34843645  0.08399052     0.38200
C1415       C  0.79029004  0.36897365  0.12052724     0.36600
C1416       C  0.79038722  0.26232370  0.09967134     0.36600
N1417       N  0.78929314  0.39033632  0.12573602    -0.38200
N1418       N  0.79037481  0.24069726  0.09557320    -0.38200
N1419       N  0.74151755  0.36163293  0.07369157    -0.37600
N1420       N  0.83640092  0.26833492  0.14830657    -0.37700
C1421       C  0.87745041  0.39111979  0.11984427    -0.04300
C1422       C  0.88070199  0.39008391  0.09319679    -0.01400
C1423       C  0.89251403  0.41036856  0.08017971     0.03600
C1424       C  0.90202458  0.43164538  0.09374712    -0.04300
C1425       C  0.89879755  0.43252553  0.12050997    -0.01400
C1426       C  0.88630047  0.41255311  0.13337153     0.03600
C1427       C  0.87294798  0.36754268  0.07921292     0.38200
C1428       C  0.90945036  0.45326889  0.13526613     0.38200
C1429       C  0.88230281  0.41427018  0.16061341     0.36600
C1430       C  0.89437778  0.40928081  0.05269732     0.36600
N1431       N  0.87910805  0.41582181  0.18232142    -0.38200
N1432       N  0.89558352  0.40798440  0.03077410    -0.38200
N1433       N  0.91796309  0.46954100  0.14740471    -0.37600
N1434       N  0.86686538  0.34946591  0.06820542    -0.37700
C1435       C  0.01268165  0.73312605  0.22167295    -0.04300
C1436       C  0.01483888  0.70634772  0.22108841    -0.01400
C1437       C  0.03195233  0.69439680  0.20423238     0.03600
C1438       C  0.04752173  0.70912625  0.18783515    -0.04300
C1439       C  0.04775624  0.73599828  0.19127528    -0.01400
C1440       C  0.02980921  0.74786116  0.20728334     0.03600
C1441       C  0.99845083  0.69101374  0.23709828     0.38200
C1442       C  0.06588793  0.75199869  0.17814446     0.38200
C1443       C  0.02779892  0.77540263  0.20740716     0.36600
C1444       C  0.03340382  0.66684611  0.20414147     0.36600
N1445       N  0.02621668  0.79735567  0.20750588    -0.38200
N1446       N  0.03423701  0.64485437  0.20443914    -0.38200
N1447       N  0.08051209  0.76505068  0.16823417    -0.37600
N1448       N  0.98527089  0.67883125  0.24976592    -0.37700
C1449       C  0.14795653  0.73655227  0.08729921    -0.04300
C1450       C  0.15466135  0.71410054  0.10041792    -0.01400
C1451       C  0.13708624  0.70235719  0.11695912     0.03600
C1452       C  0.11268902  0.71289372  0.12016750    -0.04300
C1453       C  0.10654009  0.73605318  0.10803995    -0.01400
C1454       C  0.12439611  0.74817287  0.09227547     0.03600
C1455       C  0.17937152  0.70282592  0.09637044     0.38200
C1456       C  0.08106934  0.74626683  0.10985334     0.38200
C1457       C  0.11819607  0.77225693  0.08035869     0.36600
C1458       C  0.14373799  0.67905127  0.13012857     0.36600
N1459       N  0.11333846  0.79165726  0.07118334    -0.38200
N1460       N  0.14890899  0.66046822  0.14074350    -0.38200
N1461       N  0.06068639  0.75429033  0.11100747    -0.37600
N1462       N  0.19916623  0.69390039  0.09328169    -0.37700
C1463       C  0.02442073  0.60417086  0.09333483    -0.04300
C1464       C  0.03595057  0.60024902  0.11756182    -0.01400
C1465       C  0.04870311  0.62033958  0.13008706     0.03600
C1466       C  0.04964625  0.64472144  0.11910935    -0.04300
C1467       C  0.03899992  0.64868835  0.09480179    -0.01400
C1468       C  0.02672250  0.62860433  0.08184702     0.03600
C1469       C  0.03446116  0.57585286  0.13034614     0.38200
C1470       C  0.04025388  0.67374043  0.08319051     0.38200
C1471       C  0.01668398  0.63357365  0.05658850     0.36600
C1472       C  0.06174327  0.61566578  0.15398303     0.36600
N1473       N  0.00868874  0.63817959  0.03659158    -0.38200
N1474       N  0.07239172  0.61174457  0.17285746    -0.38200
N1475       N  0.04122535  0.69364928  0.07384291    -0.37600
N1476       N  0.03369638  0.55656693  0.14092268    -0.37700
C1477       C  0.88546129  0.72027041  0.18009191    -0.04300
C1478       C  0.88444861  0.71604068  0.20655647    -0.01400
C1479       C  0.90252415  0.72759754  0.22277054     0.03600
C1480       C  0.92109894  0.74404473  0.21257374    -0.04300
C1481       C  0.92067266  0.74982140  0.18633669    -0.01400
C1482       C  0.90344440  0.73739799  0.17005701     0.03600
C1483       C  0.86550290  0.69897019  0.21687594     0.38200
C1484       C  0.93896612  0.76759872  0.17591596     0.38200
C1485       C  0.90567835  0.74058444  0.14272906     0.36600
C1486       C  0.90295153  0.72144499  0.24964293     0.36600
N1487       N  0.90774188  0.74274378  0.12092480    -0.38200
N1488       N  0.90332920  0.71649843  0.27109139    -0.38200
N1489       N  0.95358859  0.78177061  0.16767848    -0.37600
N1490       N  0.85031553  0.68538297  0.22506965    -0.37700
C1491       C  0.81680435  0.71647515  0.11689528    -0.04300
C1492       C  0.81943170  0.74195472  0.10839626    -0.01400
C1493       C  0.80164392  0.75237918  0.09119883     0.03600
C1494       C  0.78115387  0.73752829  0.08241960    -0.04300
C1495       C  0.77703599  0.71322932  0.09289232    -0.01400
C1496       C  0.79446829  0.70300438  0.11056600     0.03600
C1497       C  0.84047193  0.75758110  0.11685733     0.38200
C1498       C  0.75496854  0.69869183  0.08513736     0.38200
C1499       C  0.78836300  0.67962010  0.12371332     0.36600
C1500       C  0.80491831  0.77811271  0.08173201     0.36600
N1501       N  0.78265791  0.66147884  0.13475563    -0.38200
N1502       N  0.80743610  0.79867501  0.07428698    -0.38200
N1503       N  0.73730787  0.68721002  0.07885598    -0.37600
N1504       N  0.85679808  0.77062020  0.12369885    -0.37700
C1505       C  0.90586341  0.60579484  0.09792908    -0.04300
C1506       C  0.87922981  0.60600772  0.10096226    -0.01400
C1507       C  0.86704512  0.62665139  0.11313184     0.03600
C1508       C  0.88115969  0.64773780  0.12214226    -0.04300
C1509       C  0.90795466  0.64723362  0.11955054    -0.01400
C1510       C  0.92012293  0.62643084  0.10769906     0.03600
C1511       C  0.86398247  0.58567729  0.09018650     0.38200
C1512       C  0.92336892  0.66841890  0.12833482     0.38200
C1513       C  0.94754834  0.62638669  0.10595029     0.36600
C1514       C  0.83991356  0.62550871  0.11683011     0.36600
N1515       N  0.96942589  0.62690752  0.10485851    -0.38200
N1516       N  0.81826260  0.62361131  0.11952306    -0.38200
N1517       N  0.93589204  0.68508526  0.13539647    -0.37600
N1518       N  0.85171724  0.56962532  0.08146141    -0.37700
C1519       C  0.88606910  0.72045559  0.89592441    -0.04300
C1520       C  0.90193351  0.74034824  0.90441029    -0.01400
C1521       C  0.91876612  0.75221276  0.88737923     0.03600
C1522       C  0.92056381  0.74360506  0.86198981    -0.04300
C1523       C  0.90393380  0.72443797  0.85322491    -0.01400
C1524       C  0.88656626  0.71300475  0.87014927     0.03600
C1525       C  0.90246952  0.74717287  0.93114923     0.38200
C1526       C  0.90578950  0.71547118  0.82722709     0.38200
C1527       C  0.86995242  0.69283747  0.86136946     0.36600
C1528       C  0.93545104  0.77229258  0.89633045     0.36600
N1529       N  0.85667671  0.67672737  0.85441723    -0.38200
N1530       N  0.94886025  0.78824205  0.90339509    -0.38200
N1531       N  0.90734307  0.70834707  0.80646611    -0.37600
N1532       N  0.90312882  0.75238280  0.95252877    -0.37700
C1533       C  0.81434895  0.71686175  0.95589754    -0.04300
C1534       C  0.81504452  0.74309053  0.96227163    -0.01400
C1535       C  0.79748141  0.75317070  0.97973519     0.03600
C1536       C  0.77821774  0.73764196  0.98983921    -0.04300
C1537       C  0.77542771  0.71249519  0.98097119    -0.01400
C1538       C  0.79367139  0.70193861  0.96445888     0.03600
C1539       C  0.83448711  0.75973554  0.95221642     0.38200
C1540       C  0.75413145  0.69731511  0.98952405     0.38200
C1541       C  0.79132391  0.67555635  0.95669808     0.36600
C1542       C  0.80039295  0.77906796  0.98890052     0.36600
N1543       N  0.78949396  0.65446849  0.95064505    -0.38200
N1544       N  0.80266762  0.79962755  0.99642820    -0.38200
N1545       N  0.73699716  0.68528777  0.99614209    -0.37600
N1546       N  0.84951129  0.77359274  0.94419233    -0.37700
C1547       C  0.87937143  0.64934747  0.95644298    -0.04300
C1548       C  0.87903840  0.64686367  0.98330188    -0.01400
C1549       C  0.89137635  0.62624053  0.99529411     0.03600
C1550       C  0.90386567  0.60743650  0.98079855    -0.04300
C1551       C  0.90418111  0.60978319  0.95400499    -0.01400
C1552       C  0.89194516  0.63049216  0.94189999     0.03600
C1553       C  0.86670768  0.66589419  0.99901589     0.38200
C1554       C  0.91867941  0.59188188  0.93891176     0.38200
C1555       C  0.89204700  0.63203130  0.91434558     0.36600
C1556       C  0.89126378  0.62472313  0.02278241     0.36600
N1557       N  0.89216043  0.63322855  0.89236366    -0.38200
N1558       N  0.89099562  0.62427791  0.04474735    -0.38200
N1559       N  0.93051615  0.57784632  0.92686438    -0.37600
N1560       N  0.85676587  0.68088249  0.01164420    -0.37700
C1561       C  0.14835472  0.73869463  0.99495337    -0.04300
C1562       C  0.12482670  0.75080327  0.99082753    -0.01400
C1563       C  0.10649521  0.73962757  0.97476730     0.03600
C1564       C  0.11200534  0.71682032  0.96172871    -0.04300
C1565       C  0.13643957  0.70600387  0.96401012    -0.01400
C1566       C  0.15461175  0.71699967  0.98054544     0.03600
C1567       C  0.11916575  0.77440114  0.00390409     0.38200
C1568       C  0.14260763  0.68314345  0.94995207     0.38200
C1569       C  0.17960918  0.70588566  0.98311153     0.36600
C1570       C  0.08123014  0.75043022  0.97356689     0.36600
N1571       N  0.19970856  0.69727529  0.98497701    -0.38200
N1572       N  0.06104690  0.75902200  0.97302900    -0.38200
N1573       N  0.14759061  0.66488383  0.93875335    -0.37600
N1574       N  0.11469180  0.79341055  0.01400912    -0.37700
C1575       C  0.04790850  0.71443750  0.89195515    -0.04300
C1576       C  0.03491684  0.69877767  0.87414842    -0.01400
C1577       C  0.01725090  0.70939418  0.85690685     0.03600
C1578       C  0.01264342  0.73581429  0.85673001    -0.04300
C1579       C  0.02737995  0.75176435  0.87252674    -0.01400
C1580       C  0.04523844  0.74124453  0.88972515     0.03600
C1581       C  0.03949600  0.67156263  0.87352014     0.38200
C1582       C  0.02280243  0.77898488  0.87242605     0.38200
C1583       C  0.05993314  0.75834680  0.90557401     0.36600
C1584       C  0.00275589  0.69294963  0.84012297     0.36600
N1585       N  0.07170711  0.77248691  0.91765312    -0.38200
N1586       N  0.99104993  0.67986147  0.82684258    -0.38200
N1587       N  0.01906903  0.80067260  0.87235984    -0.37600
N1588       N  0.04309005  0.64985439  0.87299653    -0.37700
C1589       C  0.04705748  0.64910595  0.95917719    -0.04300
C1590       C  0.06062262  0.62873813  0.97047176    -0.01400
C1591       C  0.04756113  0.60824211  0.98204534     0.03600
C1592       C  0.02077513  0.60754212  0.98221613    -0.04300
C1593       C  0.00723798  0.62820758  0.97152404    -0.01400
C1594       C  0.02019905  0.64874929  0.96010899     0.03600
C1595       C  0.08808513  0.62843489  0.96995502     0.38200
C1596       C  0.97980275  0.62882393  0.97240693     0.38200
C1597       C  0.00559055  0.67000194  0.95015847     0.36600
C1598       C  0.06177040  0.58857419  0.99517362     0.36600
N1599       N  0.99392815  0.68686817  0.94216865    -0.38200
N1600       N  0.07300859  0.57300289  0.00591850    -0.38200
N1601       N  0.95795502  0.63020774  0.97308052    -0.37600
N1602       N  0.11000644  0.62790384  0.96974831    -0.37700
loop_ 
_geom_bond_atom_site_label_1 
_geom_bond_atom_site_label_2 
_geom_bond_distance 
_geom_bond_site_symmetry_2 
_ccdc_geom_bond_type 
C1            N2   1.358       .  A
C1            N6   1.359       .  A
C1         C1589   1.501       .  S
N2            C3   1.359       .  A
C3            N4   1.363       .  A
C3         C1575   1.507       .  S
N4            C5   1.364       .  A
C5            N6   1.362       .  A
C5         C1564   1.487       .  S
C7            N8   1.359       .  A
C7           N12   1.360       .  A
C7         C1547   1.501       .  S
N8            C9   1.358       .  A
C9           N10   1.358       .  A
C9         C1519   1.479       .  S
N10          C11   1.360       .  A
C11          N12   1.361       .  A
C11        C1533   1.496       .  S
C13          N14   1.365       .  A
C13          N18   1.358       .  A
C13        C1508   1.505       .  S
N14          C15   1.367       .  A
C15          N16   1.359       .  A
C15        C1491   1.494       .  S
N16          C17   1.356       .  A
C17          N18   1.356       .  A
C17        C1477   1.478       .  S
C19          N20   1.355       .  A
C19          N24   1.361       .  A
C19        C1466   1.485       .  S
N20          C21   1.355       .  A
C21          N22   1.360       .  A
C21        C1452   1.483       .  S
N22          C23   1.363       .  A
C23          N24   1.364       .  A
C23        C1438   1.512       .  S
C25          N26   1.357       .  A
C25          N30   1.356       .  A
C25        C1421   1.488       .  S
N26          C27   1.361       .  A
C27          N28   1.362       .  A
C27        C1407   1.500       .  S
N28          C29   1.360       .  A
C29          N30   1.357       .  A
C29        C1393   1.480       .  S
C31          N32   1.359       .  A
C31          N36   1.361       .  A
C31        C1379   1.500       .  S
N32          C33   1.361       .  A
C33          N34   1.362       .  A
C33        C1365   1.501       .  S
N34          C35   1.362       .  A
C35          N36   1.362       .  A
C35        C1351   1.486       .  S
C37          N38   1.359       .  A
C37          N42   1.357       .  A
C37        C1340   1.493       .  S
N38          C39   1.361       .  A
C39          N40   1.360       .  A
C39        C1309   1.501       .  S
N40          C41   1.359       .  A
C41          N42   1.358       .  A
C41        C1326   1.478       .  S
C43          N44   1.358       .  A
C43          N48   1.358       .  A
C43        C1298   1.494       .  S
N44          C45   1.358       .  A
C45          N46   1.359       .  A
C45        C1284   1.479       .  S
N46          C47   1.360       .  A
C47          N48   1.361       .  A
C47        C1270   1.495       .  S
O49         Zr61   2.450   1_455  S
O49          C51   1.289       .  A
O50         Zr87   2.424       .  S
O50          C51   1.287   1_655  A
C51        C1463   1.508       .  S
O52         Zr64   2.462   1_556  S
O52          C54   1.292       .  A
O53         Zr88   2.429       .  S
O53          C54   1.288   1_654  A
C54        C1337   1.500       .  S
O55         Zr64   2.471   1_556  S
O55          C57   1.294       .  A
O56         Zr87   2.416       .  S
O56          C57   1.285   1_654  A
C57        C1592   1.498       .  S
O58         Zr61   2.454   1_455  S
O58          C60   1.290       .  A
O59         Zr88   2.438       .  S
O59          C60   1.289   1_655  A
C60        C1295   1.500       .  S
Zr61         O62   2.432   1_655  S
Zr61         O63   2.435       .  S
Zr61         O67   2.376   1_655  S
Zr61         O68   2.373       .  S
Zr61         O91   2.372       .  S
Zr61         O93   2.369       .  S
O62         H105   0.990       .  S
O63         H104   0.990       .  S
O63         H108   0.990   1_655  S
Zr64         O65   2.435       .  S
Zr64         O66   2.434   1_554  S
Zr64         O68   2.380   1_455  S
Zr64         O67   2.371       .  S
Zr64         O92   2.375   1_454  S
Zr64         O94   2.379   1_454  S
O65         H106   0.990       .  S
O65         H109   0.990   1_554  S
O66          H99   0.990       .  S
O67         Zr87   2.383   1_455  S
O68         Zr88   2.389       .  S
O68          H95   0.966   1_655  S
O69         Zr81   2.448       .  S
O69          C71   1.289       .  A
O70         Zr88   2.434       .  S
O70          C71   1.289       .  A
C71        C1424   1.498       .  S
O72         Zr84   2.458       .  S
O72          C74   1.291       .  A
O73         Zr87   2.428       .  S
O73          C74   1.287   1_554  A
C74        C1550   1.496       .  S
O75         Zr84   2.461       .  S
O75          C77   1.292       .  A
O76         Zr88   2.432       .  S
O76          C77   1.289   1_554  A
C77        C1382   1.502       .  S
O78         Zr81   2.459       .  S
O78          C80   1.291       .  A
O79         Zr87   2.427       .  S
O79          C80   1.287       .  A
C80        C1505   1.500       .  S
Zr81         O82   2.435       .  S
Zr81         O83   2.433       .  S
Zr81         O89   2.378       .  S
Zr81         O90   2.374       .  S
Zr81         O93   2.374       .  S
Zr81         O91   2.378       .  S
O82         H102   0.990       .  S
O82         H107   0.990       .  S
O83         H103   0.990       .  S
Zr84         O85   2.431       .  S
Zr84         O86   2.434       .  S
Zr84         O90   2.380   1_556  S
Zr84         O89   2.376   1_556  S
Zr84         O94   2.377       .  S
Zr84         O92   2.370       .  S
O85         H101   0.990   1_556  S
O86         H100   0.990       .  S
O86         H110   0.990       .  S
Zr87         O90   2.379       .  S
Zr87         O92   2.385   1_554  S
Zr87         O93   2.379       .  S
Zr88         O89   2.386       .  S
Zr88         O91   2.381       .  S
Zr88         O94   2.386   1_554  S
O89          H97   0.964       .  S
O92          H96   0.966       .  S
O93          H98   0.965       .  S
C111        N112   1.357       .  A
C111        N116   1.362       .  A
C111       C1253   1.494       .  S
N112        C113   1.357       .  A
C113        N114   1.361       .  A
C113       C1225   1.485       .  S
N114        C115   1.363       .  A
C115        N116   1.366       .  A
C115       C1242   1.500       .  S
C117        N118   1.357       .  A
C117        N122   1.356       .  A
C117       C1211   1.485       .  S
N118        C119   1.362       .  A
C119        N120   1.361       .  A
C119       C1197   1.500       .  S
N120        C121   1.361       .  A
C121        N122   1.358       .  A
C121       C1183   1.480       .  S
C123        N124   1.360       .  A
C123        N128   1.358       .  A
C123       C1169   1.516       .  S
N124        C125   1.361       .  A
C125        N126   1.362       .  A
C125       C1141   1.486       .  S
N126        C127   1.362       .  A
C127        N128   1.361       .  A
C127       C1158   1.503       .  S
C129        N130   1.359       .  A
C129        N134   1.357       .  A
C129       C1130   1.495       .  S
N130        C131   1.361       .  A
C131        N132   1.361       .  A
C131       C1102   1.504       .  S
N132        C133   1.360       .  A
C133        N134   1.359       .  A
C133       C1116   1.481       .  S
C135        N136   1.360       .  A
C135        N140   1.362       .  A
C135       C1085   1.502       .  S
N136        C137   1.361       .  A
C137        N138   1.360       .  A
C137       C1057   1.505       .  S
N138        C139   1.360       .  A
C139        N140   1.362       .  A
C139       C1074   1.488       .  S
C141        N142   1.357       .  A
C141        N146   1.362       .  A
C141       C1043   1.490       .  S
N142        C143   1.356       .  A
C143        N144   1.357       .  A
C143       C1015   1.481       .  S
N144        C145   1.361       .  A
C145        N146   1.366       .  A
C145       C1029   1.511       .  S
C147        N148   1.358       .  A
C147        N152   1.362       .  A
C147       C1001   1.497       .  S
N148        C149   1.357       .  A
C149        N150   1.358       .  A
C149        C973   1.476       .  S
N150        C151   1.359       .  A
C151        N152   1.362       .  A
C151        C990   1.494       .  S
C153        N154   1.362       .  A
C153        N158   1.360       .  A
C153        C959   1.498       .  S
N154        C155   1.361       .  A
C155        N156   1.358       .  A
C155        C948   1.484       .  S
N156        C157   1.359       .  A
C157        N158   1.361       .  A
C157        C931   1.496       .  S
O159       Zr171   2.465       .  S
O159        C161   1.293       .  A
O160       Zr197   2.419       .  S
O160        C161   1.286       .  A
C161       C1127   1.500       .  S
O162       Zr174   2.463       .  S
O162        C164   1.292       .  A
O163       Zr198   2.436   1_565  S
O163        C164   1.290       .  A
C164       C1004   1.501       .  S
O165       Zr174   2.474       .  S
O165        C167   1.294       .  A
O166       Zr197   2.419   1_565  S
O166        C167   1.285       .  A
C167       C1256   1.518       .  S
O168       Zr171   2.461       .  S
O168        C170   1.292       .  A
O169       Zr198   2.435       .  S
O169        C170   1.290       .  A
C170        C962   1.505       .  S
Zr171       O172   2.434       .  S
Zr171       O173   2.434       .  S
Zr171       O177   2.374       .  S
Zr171       O178   2.379       .  S
Zr171       O201   2.377       .  S
Zr171       O203   2.376       .  S
O172        H215   0.990       .  S
O173        H214   0.990       .  S
O173        H218   0.990       .  S
Zr174       O175   2.432       .  S
Zr174       O176   2.433       .  S
Zr174       O178   2.377   1_565  S
Zr174       O177   2.373   1_565  S
Zr174       O202   2.372       .  S
Zr174       O204   2.382       .  S
O175        H216   0.989       .  S
O175        H219   0.990       .  S
O176        H209   0.990       .  S
O177       Zr197   2.380       .  S
O178       Zr198   2.390       .  S
O178        H205   0.966       .  S
O179       Zr191   2.457   1_556  S
O179        C181   1.290       .  A
O180       Zr198   2.440       .  S
O180        C181   1.290   1_554  A
C181       C1088   1.500       .  S
O182       Zr194   2.473       .  S
O182        C184   1.294       .  A
O183       Zr197   2.410   1_565  S
O183        C184   1.283   1_554  A
C184       C1214   1.515       .  S
O185       Zr194   2.465       .  S
O185        C187   1.292       .  A
O186       Zr198   2.434   1_565  S
O186        C187   1.289   1_554  A
C187       C1046   1.516       .  S
O188       Zr191   2.451   1_556  S
O188        C190   1.289       .  A
O189       Zr197   2.431       .  S
O189        C190   1.288   1_554  A
C190       C1172   1.488       .  S
Zr191       O192   2.432   1_554  S
Zr191       O193   2.435       .  S
Zr191       O199   2.374   1_554  S
Zr191       O200   2.378   1_554  S
Zr191       O203   2.377       .  S
Zr191       O201   2.376       .  S
O192        H212   0.989       .  S
O192        H217   0.990       .  S
O193        H213   0.990       .  S
Zr194       O195   2.433       .  S
Zr194       O196   2.431   1_556  S
Zr194       O200   2.375   1_565  S
Zr194       O199   2.380   1_565  S
Zr194       O204   2.378   1_556  S
Zr194       O202   2.371   1_556  S
O195        H211   0.990   1_565  S
O196        H210   0.990       .  S
O196        H220   0.988   1_554  S
Zr197       O200   2.377   1_554  S
Zr197       O202   2.378   1_545  S
Zr197       O203   2.383       .  S
Zr198       O199   2.387   1_554  S
Zr198       O201   2.383       .  S
Zr198       O204   2.381   1_545  S
O199        H207   0.966       .  S
O202        H206   0.966       .  S
O203        H208   0.966       .  S
C221        N222   1.360       .  A
C221        N226   1.359       .  A
C221        C920   1.493       .  S
N222        C223   1.363       .  A
C223        N224   1.360       .  A
C223        C903   1.507       .  S
N224        C225   1.359       .  A
C225        N226   1.359       .  A
C225        C889   1.484       .  S
C227        N228   1.363       .  A
C227        N232   1.360       .  A
C227        C875   1.514       .  S
N228        C229   1.363       .  A
C229        N230   1.364       .  A
C229        C847   1.495       .  S
N230        C231   1.364       .  A
C231        N232   1.361       .  A
C231        C861   1.506       .  S
C233        N234   1.357       .  A
C233        N238   1.357       .  A
C233        C836   1.486       .  S
N234        C235   1.362       .  A
C235        N236   1.363       .  A
C235        C805   1.499       .  S
N236        C237   1.361       .  A
C237        N238   1.359       .  A
C237        C819   1.485       .  S
C239        N240   1.359       .  A
C239        N244   1.363       .  A
C239        C791   1.507       .  S
N240        C241   1.358       .  A
C241        N242   1.360       .  A
C241        C780   1.481       .  S
N242        C243   1.360       .  A
C243        N244   1.364       .  A
C243        C766   1.504       .  S
C245        N246   1.356       .  A
C245        N250   1.357       .  A
C245        C749   1.484       .  S
N246        C247   1.359       .  A
C247        N248   1.360       .  A
C247        C721   1.487       .  S
N248        C249   1.359       .  A
C249        N250   1.358       .  A
C249        C738   1.477       .  S
C251        N252   1.358       .  A
C251        N256   1.360       .  A
C251        C707   1.500       .  S
N252        C253   1.358       .  A
C253        N254   1.357       .  A
C253        C693   1.476       .  S
N254        C255   1.359       .  A
C255        N256   1.361       .  A
C255        C679   1.498       .  S
C257        N258   1.357       .  A
C257        N262   1.363       .  A
C257        C665   1.496       .  S
N258        C259   1.357       .  A
C259        N260   1.360       .  A
C259        C637   1.483       .  S
N260        C261   1.362       .  A
C261        N262   1.367       .  A
C261        C654   1.513       .  S
C263        N264   1.360       .  A
C263        N268   1.359       .  A
C263        C623   1.516       .  S
N264        C265   1.359       .  A
C265        N266   1.359       .  A
C265        C612   1.483       .  S
N266        C267   1.359       .  A
C267        N268   1.361       .  A
C267        C595   1.505       .  S
O269       Zr281   2.469       .  S
O269        C271   1.294       .  A
O270       Zr307   2.425   1_565  S
O270        C271   1.287   1_655  A
C271        C917   1.506       .  S
O272       Zr284   2.438       .  S
O272        C274   1.286       .  A
O273       Zr308   2.437       .  S
O273        C274   1.288   1_655  A
C274        C626   1.484       .  S
O275       Zr284   2.450       .  S
O275        C277   1.289       .  A
O276       Zr307   2.442       .  S
O276        C277   1.290   1_655  A
C277        C794   1.495       .  S
O278       Zr281   2.472       .  S
O278        C280   1.294       .  A
O279       Zr308   2.430   1_565  S
O279        C280   1.288   1_655  A
C280        C668   1.516       .  S
Zr281       O282   2.431       .  S
Zr281       O283   2.436   1_455  S
Zr281       O287   2.383   1_565  S
Zr281       O288   2.377   1_565  S
Zr281       O311   2.375   1_455  S
Zr281       O313   2.376   1_455  S
O282        H325   0.990       .  S
O283        H324   0.990       .  S
O283        H328   0.990       .  S
Zr284       O285   2.435       .  S
Zr284       O286   2.434       .  S
Zr284       O288   2.375       .  S
Zr284       O287   2.375       .  S
Zr284       O312   2.370   1_455  S
Zr284       O314   2.377   1_455  S
O285        H326   0.990       .  S
O285        H329   0.990       .  S
O286        H319   0.990       .  S
O287       Zr307   2.381   1_455  S
O288       Zr308   2.383   1_455  S
O288        H315   0.966       .  S
O289       Zr301   2.459       .  S
O289        C291   1.291       .  A
O290       Zr308   2.426   1_565  S
O290        C291   1.287       .  A
C291        C710   1.491       .  S
O292       Zr304   2.473       .  S
O292        C294   1.293       .  A
O293       Zr307   2.412       .  S
O293        C294   1.283       .  A
C294        C833   1.523       .  S
O295       Zr304   2.471       .  S
O295        C297   1.294       .  A
O296       Zr308   2.416       .  S
O296        C297   1.285       .  A
C297        C752   1.511       .  S
O298       Zr301   2.459       .  S
O298        C300   1.290       .  A
O299       Zr307   2.433   1_565  S
O299        C300   1.288       .  A
C300        C878   1.493       .  S
Zr301       O302   2.435       .  S
Zr301       O303   2.434       .  S
Zr301       O309   2.374   1_565  S
Zr301       O310   2.374   1_565  S
Zr301       O313   2.379       .  S
Zr301       O311   2.379       .  S
O302        H322   0.990       .  S
O302        H327   0.990       .  S
O303        H323   0.990       .  S
Zr304       O305   2.433       .  S
Zr304       O306   2.435       .  S
Zr304       O310   2.375       .  S
Zr304       O309   2.379       .  S
Zr304       O314   2.376       .  S
Zr304       O312   2.374       .  S
O305        H321   0.990       .  S
O306        H320   0.990       .  S
O306        H330   0.990       .  S
Zr307       O310   2.381       .  S
Zr307       O312   2.381       .  S
Zr307       O313   2.388   1_545  S
Zr308       O309   2.389       .  S
Zr308       O311   2.382   1_545  S
Zr308       O314   2.381       .  S
O309        H317   0.966       .  S
O312        H316   0.966       .  S
O313        H318   0.965       .  S
C331       C1267   1.488   1_655  S
C331        C332   1.396       .  A
C331        C336   1.412       .  A
C332        C333   1.394       .  A
C332        H351   1.086       .  S
C333       C1396   1.488       .  S
C333        C334   1.413       .  A
C334        C335   1.421       .  A
C334        C341   1.405       .  A
C335        C336   1.419       .  A
C335        C340   1.419       .  A
C336        C337   1.405   1_655  A
C337        C338   1.393       .  A
C337        H347   1.083       .  S
C338        C339   1.405   1_455  A
C338        H348   1.083       .  S
C339        C340   1.421       .  A
C339        C346   1.415       .  A
C340        C343   1.419       .  A
C341        C342   1.394       .  A
C341        H349   1.083       .  S
C342        C343   1.406       .  A
C342        H350   1.083       .  S
C343        C344   1.412       .  A
C344        C724   1.488       .  S
C344        C345   1.398       .  A
C345        C346   1.397       .  A
C345        H352   1.085       .  S
C346        C598   1.496   1_655  S
C353        C934   1.492       .  S
C353        C354   1.394       .  A
C353        C358   1.415       .  A
C354        C355   1.396       .  A
C354        H373   1.086       .  S
C355        C976   1.491   1_545  S
C355        C356   1.414       .  A
C356        C357   1.422       .  A
C356        C363   1.406   1_545  A
C357        C358   1.422       .  A
C357        C362   1.420       .  A
C358        C359   1.405       .  A
C359        C360   1.395       .  A
C359        H369   1.083       .  S
C360        C361   1.405       .  A
C360        H370   1.083       .  S
C361        C362   1.421       .  A
C361        C368   1.413       .  A
C362        C365   1.422       .  A
C363        C364   1.395       .  A
C363        H371   1.082       .  S
C364        C365   1.404   1_565  A
C364        H372   1.083       .  S
C365        C366   1.413       .  A
C366        C640   1.490   1_545  S
C366        C367   1.396       .  A
C367        C368   1.395       .  A
C367        H374   1.086       .  S
C368        C609   1.490       .  S
C375       C1312   1.494   1_554  S
C375        C376   1.395       .  A
C375        C380   1.415       .  A
C376        C377   1.397       .  A
C376        H395   1.086       .  S
C377       C1281   1.491       .  S
C377        C378   1.415       .  A
C378        C379   1.422       .  A
C378        C385   1.406       .  A
C379        C380   1.423       .  A
C379        C384   1.422       .  A
C380        C381   1.404   1_554  A
C381        C382   1.394       .  A
C381        H391   1.083       .  S
C382        C383   1.406   1_556  A
C382        H392   1.083       .  S
C383        C384   1.422       .  A
C383        C390   1.416       .  A
C384        C387   1.423       .  A
C385        C386   1.397       .  A
C385        H393   1.083       .  S
C386        C387   1.405       .  A
C386        H394   1.083       .  S
C387        C388   1.416       .  A
C388        C945   1.493       .  S
C388        C389   1.397       .  A
C389        C390   1.396       .  A
C389        H396   1.086       .  S
C390       C1060   1.496   1_554  S
C397       C1228   1.491       .  S
C397        C398   1.395   1_565  A
C397        C402   1.414       .  A
C398        C399   1.395       .  A
C398        H417   1.086       .  S
C399       C1113   1.488       .  S
C399        C400   1.414       .  A
C400        C401   1.421       .  A
C400        C407   1.405       .  A
C401        C402   1.422   1_545  A
C401        C406   1.420       .  A
C402        C403   1.404       .  A
C403        C404   1.395       .  A
C403        H413   1.083       .  S
C404        C405   1.406       .  A
C404        H414   1.083       .  S
C405        C406   1.421   1_565  A
C405        C412   1.415       .  A
C406        C409   1.422       .  A
C407        C408   1.396       .  A
C407        H415   1.083       .  S
C408        C409   1.406       .  A
C408        H416   1.082       .  S
C409        C410   1.415       .  A
C410        C735   1.492       .  S
C410        C411   1.396       .  A
C411        C412   1.395   1_545  A
C411        H418   1.086       .  S
C412        C682   1.493       .  S
C419       C1480   1.493       .  S
C419        C420   1.396       .  A
C419        C424   1.413       .  A
C420        C421   1.398       .  A
C420        H439   1.086       .  S
C421       C1435   1.502   1_655  S
C421        C422   1.421       .  A
C422        C423   1.423       .  A
C422        C429   1.407   1_655  A
C423        C424   1.422       .  A
C423        C428   1.422       .  A
C424        C425   1.405       .  A
C425        C426   1.394       .  A
C425        H435   1.083       .  S
C426        C427   1.405       .  A
C426        H436   1.083       .  S
C427        C428   1.422       .  A
C427        C434   1.413       .  A
C428        C431   1.424       .  A
C429        C430   1.398       .  A
C429        H437   1.083       .  S
C430        C431   1.405   1_455  A
C430        H438   1.083       .  S
C431        C432   1.419       .  A
C432        C651   1.499   1_655  S
C432        C433   1.396       .  A
C433        C434   1.394       .  A
C433        H440   1.086       .  S
C434        C696   1.491       .  S
C441       C1071   1.494       .  S
C441        C442   1.396       .  A
C441        C446   1.416       .  A
C442        C443   1.396   1_545  A
C442        H461   1.086       .  S
C443       C1018   1.490       .  S
C443        C444   1.414       .  A
C444        C445   1.422   1_565  A
C444        C451   1.406       .  A
C445        C446   1.424       .  A
C445        C450   1.421       .  A
C446        C447   1.405       .  A
C447        C448   1.397       .  A
C447        H457   1.083       .  S
C448        C449   1.406       .  A
C448        H458   1.083       .  S
C449        C450   1.422       .  A
C449        C456   1.415       .  A
C450        C453   1.423   1_545  A
C451        C452   1.396       .  A
C451        H459   1.083       .  S
C452        C453   1.405       .  A
C452        H460   1.083       .  S
C453        C454   1.414       .  A
C454        C892   1.490       .  S
C454        C455   1.393   1_565  A
C455        C456   1.395       .  A
C455        H462   1.086       .  S
C456        C777   1.490       .  S
C463       C1323   1.490   1_655  S
C463        C464   1.397       .  A
C463        C468   1.414       .  A
C464        C465   1.396       .  A
C464        H483   1.086       .  S
C465       C1368   1.497       .  S
C465        C466   1.418       .  A
C466        C467   1.425       .  A
C466        C473   1.404       .  A
C467        C468   1.420       .  A
C467        C472   1.422       .  A
C468        C469   1.407   1_655  A
C469        C470   1.395       .  A
C469        H479   1.082       .  S
C470        C471   1.404   1_455  A
C470        H480   1.083       .  S
C471        C472   1.424       .  A
C471        C478   1.418       .  A
C472        C475   1.420       .  A
C473        C474   1.396       .  A
C473        H481   1.083       .  S
C474        C475   1.407       .  A
C474        H482   1.083       .  S
C475        C476   1.415       .  A
C476        C808   1.492       .  S
C476        C477   1.396       .  A
C477        C478   1.395       .  A
C477        H484   1.086       .  S
C478        C763   1.498   1_655  S
C485       C1449   1.493       .  S
C485        C486   1.397       .  A
C485        C490   1.415       .  A
C486        C487   1.397       .  A
C486        H505   1.086       .  S
C487       C1561   1.493   1_554  S
C487        C488   1.414       .  A
C488        C489   1.422       .  A
C488        C495   1.404   1_554  A
C489        C490   1.422       .  A
C489        C494   1.421       .  A
C490        C491   1.405       .  A
C491        C492   1.396       .  A
C491        H501   1.083       .  S
C492        C493   1.405       .  A
C492        H502   1.083       .  S
C493        C494   1.422       .  A
C493        C500   1.413       .  A
C494        C497   1.424       .  A
C495        C496   1.396       .  A
C495        H503   1.083       .  S
C496        C497   1.406   1_556  A
C496        H504   1.082       .  S
C497        C498   1.419       .  A
C498       C1032   1.498   1_554  S
C498        C499   1.396       .  A
C499        C500   1.394       .  A
C499        H506   1.086       .  S
C500        C987   1.490       .  S
C507       C1354   1.495   1_554  S
C507        C508   1.397       .  A
C507        C512   1.417       .  A
C508        C509   1.397       .  A
C508        H527   1.086       .  S
C509       C1410   1.496       .  S
C509        C510   1.415       .  A
C510        C511   1.421       .  A
C510        C517   1.405       .  A
C511        C512   1.422       .  A
C511        C516   1.422       .  A
C512        C513   1.406   1_554  A
C513        C514   1.398       .  A
C513        H523   1.083       .  S
C514        C515   1.406   1_556  A
C514        H524   1.083       .  S
C515        C516   1.422       .  A
C515        C522   1.416       .  A
C516        C519   1.422       .  A
C517        C518   1.394       .  A
C517        H525   1.083       .  S
C518        C519   1.405       .  A
C518        H526   1.083       .  S
C519        C520   1.416       .  A
C520       C1099   1.494       .  S
C520        C521   1.396       .  A
C521        C522   1.395       .  A
C521        H528   1.086       .  S
C522       C1144   1.492   1_554  S
C529       C1522   1.491       .  S
C529        C530   1.397       .  A
C529        C534   1.416       .  A
C530        C531   1.395       .  A
C530        H549   1.086       .  S
C531       C1578   1.499   1_655  S
C531        C532   1.417       .  A
C532        C533   1.425       .  A
C532        C539   1.404   1_655  A
C533        C534   1.421       .  A
C533        C538   1.423       .  A
C534        C535   1.407       .  A
C535        C536   1.398       .  A
C535        H545   1.083       .  S
C536        C537   1.405       .  A
C536        H546   1.083       .  S
C537        C538   1.426       .  A
C537        C544   1.420       .  A
C538        C541   1.421       .  A
C539        C540   1.395       .  A
C539        H547   1.083       .  S
C540        C541   1.407   1_455  A
C540        H548   1.083       .  S
C541        C542   1.416       .  A
C542        C906   1.496   1_655  S
C542        C543   1.399       .  A
C543        C544   1.397       .  A
C543        H550   1.086       .  S
C544        C850   1.502       .  S
C551       C1200   1.494       .  S
C551        C552   1.397   1_565  A
C551        C556   1.417       .  A
C552        C553   1.395       .  A
C552        H571   1.086       .  S
C553       C1155   1.496       .  S
C553        C554   1.417       .  A
C554        C555   1.424       .  A
C554        C561   1.405       .  A
C555        C556   1.422   1_545  A
C555        C560   1.423       .  A
C556        C557   1.407       .  A
C557        C558   1.397       .  A
C557        H567   1.083       .  S
C558        C559   1.405       .  A
C558        H568   1.083       .  S
C559        C560   1.424   1_565  A
C559        C566   1.419       .  A
C560        C563   1.420       .  A
C561        C562   1.395       .  A
C561        H569   1.083       .  S
C562        C563   1.406       .  A
C562        H570   1.083       .  S
C563        C564   1.414       .  A
C564        C822   1.491       .  S
C564        C565   1.398       .  A
C565        C566   1.398   1_545  A
C565        H572   1.086       .  S
C566        C864   1.502       .  S
C573       C1536   1.490   1_554  S
C573        C574   1.396       .  A
C573        C578   1.415       .  A
C574        C575   1.395       .  A
C574        H593   1.086       .  S
C575       C1494   1.490       .  S
C575        C576   1.413       .  A
C576        C577   1.421       .  A
C576        C583   1.405       .  A
C577        C578   1.421       .  A
C577        C582   1.420       .  A
C578        C579   1.406   1_554  A
C579        C580   1.395       .  A
C579        H589   1.083       .  S
C580        C581   1.405   1_556  A
C580        H590   1.083       .  S
C581        C582   1.421       .  A
C581        C588   1.413       .  A
C582        C585   1.422       .  A
C583        C584   1.395       .  A
C583        H591   1.083       .  S
C584        C585   1.405       .  A
C584        H592   1.083       .  S
C585        C586   1.415       .  A
C586       C1239   1.492       .  S
C586        C587   1.395       .  A
C587        C588   1.395       .  A
C587        H594   1.086       .  S
C588       C1186   1.488   1_554  S
C595        C596   1.421       .  A
C595        C600   1.419       .  A
C596        C597   1.413       .  A
C596        C601   1.449       .  S
C597        C598   1.412       .  A
C597        C604   1.452       .  S
C598        C599   1.410       .  A
C599        C600   1.412       .  A
C599        C602   1.451       .  S
C600        C603   1.451       .  S
C601        N608   1.157       .  T
C602        N607   1.157   1_455  T
C603        N605   1.157       .  T
C604        N606   1.157       .  T
C609        C610   1.410       .  A
C609        C614   1.411       .  A
C610        C611   1.413       .  A
C610        C615   1.449       .  S
C611        C612   1.413       .  A
C611        C618   1.449       .  S
C612        C613   1.412       .  A
C613        C614   1.409       .  A
C613        C616   1.451       .  S
C614        C617   1.451       .  S
C615        N622   1.157       .  T
C616        N621   1.157       .  T
C617        N619   1.157       .  T
C618        N620   1.157       .  T
C623        C624   1.430       .  A
C623        C628   1.427       .  A
C624        C625   1.414       .  A
C624        C629   1.451       .  S
C625        C626   1.406       .  A
C625        C632   1.453   1_455  S
C626        C627   1.407       .  A
C627        C628   1.414       .  A
C627        C630   1.452       .  S
C628        C631   1.451       .  S
C629        N636   1.158   1_455  T
C630        N635   1.157       .  T
C631        N633   1.157       .  T
C632        N634   1.157       .  T
C637        C638   1.412       .  A
C637        C642   1.413       .  A
C638        C639   1.408       .  A
C638        C643   1.451       .  S
C639        C640   1.410       .  A
C639        C646   1.450       .  S
C640        C641   1.411       .  A
C641        C642   1.414       .  A
C641        C644   1.450       .  S
C642        C645   1.450       .  S
C643        N650   1.157       .  T
C644        N649   1.157       .  T
C645        N647   1.157       .  T
C646        N648   1.157       .  T
C651        C652   1.410       .  A
C651        C656   1.410       .  A
C652        C653   1.413       .  A
C652        C657   1.452       .  S
C653        C654   1.420       .  A
C653        C660   1.448       .  S
C654        C655   1.427       .  A
C655        C656   1.417       .  A
C655        C658   1.449       .  S
C656        C659   1.452       .  S
C657        N664   1.157   1_455  T
C658        N663   1.157       .  T
C659        N661   1.157       .  T
C660        N662   1.156       .  T
C665        C666   1.412       .  A
C665        C670   1.409       .  A
C666        C667   1.416       .  A
C666        C671   1.453       .  S
C667        C668   1.426       .  A
C667        C674   1.451   1_565  S
C668        C669   1.424       .  A
C669        C670   1.418       .  A
C669        C672   1.450       .  S
C670        C673   1.450       .  S
C671        N678   1.158       .  T
C672        N677   1.157       .  T
C673        N675   1.157       .  T
C674        N676   1.157       .  T
C679        C680   1.418       .  A
C679        C684   1.421       .  A
C680        C681   1.412       .  A
C680        C685   1.451       .  S
C681        C682   1.410       .  A
C681        C688   1.451       .  S
C682        C683   1.410       .  A
C683        C684   1.411       .  A
C683        C686   1.452       .  S
C684        C687   1.450       .  S
C685        N692   1.157       .  T
C686        N691   1.157       .  T
C687        N689   1.157       .  T
C688        N690   1.157       .  T
C693        C694   1.409       .  A
C693        C698   1.411       .  A
C694        C695   1.412       .  A
C694        C699   1.450       .  S
C695        C696   1.413       .  A
C695        C702   1.450       .  S
C696        C697   1.413       .  A
C697        C698   1.408       .  A
C697        C700   1.451       .  S
C698        C701   1.452       .  S
C699        N706   1.157       .  T
C700        N705   1.157       .  T
C701        N703   1.157       .  T
C702        N704   1.157       .  T
C707        C708   1.419       .  A
C707        C712   1.418       .  A
C708        C709   1.416       .  A
C708        C713   1.451       .  S
C709        C710   1.413       .  A
C709        C716   1.451       .  S
C710        C711   1.412       .  A
C711        C712   1.412       .  A
C711        C714   1.450   1_565  S
C712        C715   1.453       .  S
C713        N720   1.157       .  T
C714        N719   1.156       .  T
C715        N717   1.158       .  T
C716        N718   1.157       .  T
C721        C722   1.417       .  A
C721        C726   1.414       .  A
C722        C723   1.411       .  A
C722        C727   1.450       .  S
C723        C724   1.410       .  A
C723        C730   1.451       .  S
C724        C725   1.409       .  A
C725        C726   1.409       .  A
C725        C728   1.450       .  S
C726        C729   1.451       .  S
C727        N734   1.157       .  T
C728        N733   1.157       .  T
C729        N731   1.157       .  T
C730        N732   1.157       .  T
C735        C736   1.414       .  A
C735        C740   1.412       .  A
C736        C737   1.407       .  A
C736        C741   1.452       .  S
C737        C738   1.410       .  A
C737        C744   1.452       .  S
C738        C739   1.411       .  A
C739        C740   1.414       .  A
C739        C742   1.450       .  S
C740        C743   1.449       .  S
C741        N748   1.157       .  T
C742        N747   1.157       .  T
C743        N745   1.157       .  T
C744        N746   1.157       .  T
C749        C750   1.406       .  A
C749        C754   1.408       .  A
C750        C751   1.414       .  A
C750        C755   1.452       .  S
C751        C752   1.424       .  A
C751        C758   1.449       .  S
C752        C753   1.428       .  A
C753        C754   1.413       .  A
C753        C756   1.452       .  S
C754        C757   1.454       .  S
C755        N762   1.157       .  T
C756        N761   1.157       .  T
C757        N759   1.158       .  T
C758        N760   1.157       .  T
C763        C764   1.412       .  A
C763        C768   1.411       .  A
C764        C765   1.414       .  A
C764        C769   1.451       .  S
C765        C766   1.417       .  A
C765        C772   1.451       .  S
C766        C767   1.422       .  A
C767        C768   1.415       .  A
C767        C770   1.449       .  S
C768        C771   1.452       .  S
C769        N776   1.157   1_455  T
C770        N775   1.157       .  T
C771        N773   1.157       .  T
C772        N774   1.157       .  T
C777        C778   1.412       .  A
C777        C782   1.412       .  A
C778        C779   1.415       .  A
C778        C783   1.449       .  S
C779        C780   1.413       .  A
C779        C786   1.450       .  S
C780        C781   1.410       .  A
C781        C782   1.406       .  A
C781        C784   1.451       .  S
C782        C785   1.451       .  S
C783        N790   1.157       .  T
C784        N789   1.157       .  T
C785        N787   1.157       .  T
C786        N788   1.157       .  T
C791        C792   1.420       .  A
C791        C796   1.422       .  A
C792        C793   1.414       .  A
C792        C797   1.452       .  S
C793        C794   1.411       .  A
C793        C800   1.448   1_455  S
C794        C795   1.412       .  A
C795        C796   1.417       .  A
C795        C798   1.451       .  S
C796        C799   1.451       .  S
C797        N804   1.158   1_455  T
C798        N803   1.157       .  T
C799        N801   1.157       .  T
C800        N802   1.156       .  T
C805        C806   1.419       .  A
C805        C810   1.420       .  A
C806        C807   1.411       .  A
C806        C811   1.451       .  S
C807        C808   1.409       .  A
C807        C814   1.451       .  S
C808        C809   1.410       .  A
C809        C810   1.412       .  A
C809        C812   1.453       .  S
C810        C813   1.448       .  S
C811        N818   1.157       .  T
C812        N817   1.157       .  T
C813        N815   1.157       .  T
C814        N816   1.157       .  T
C819        C820   1.414       .  A
C819        C824   1.413       .  A
C820        C821   1.414       .  A
C820        C825   1.450       .  S
C821        C822   1.410       .  A
C821        C828   1.449       .  S
C822        C823   1.411       .  A
C823        C824   1.409       .  A
C823        C826   1.452       .  S
C824        C827   1.450       .  S
C825        N832   1.157       .  T
C826        N831   1.157       .  T
C827        N829   1.157       .  T
C828        N830   1.157       .  T
C833        C834   1.434       .  A
C833        C838   1.428       .  A
C834        C835   1.413       .  A
C834        C839   1.453       .  S
C835        C836   1.405       .  A
C835        C842   1.454       .  S
C836        C837   1.407       .  A
C837        C838   1.418       .  A
C837        C840   1.451       .  S
C838        C841   1.451       .  S
C839        N846   1.158       .  T
C840        N845   1.157       .  T
C841        N843   1.158       .  T
C842        N844   1.157       .  T
C847        C848   1.412       .  A
C847        C852   1.415       .  A
C848        C849   1.414       .  A
C848        C853   1.450       .  S
C849        C850   1.414       .  A
C849        C856   1.451       .  S
C850        C851   1.412       .  A
C851        C852   1.419       .  A
C851        C854   1.449       .  S
C852        C855   1.449       .  S
C853        N860   1.157       .  T
C854        N859   1.157       .  T
C855        N857   1.157       .  T
C856        N858   1.157       .  T
C861        C862   1.420       .  A
C861        C866   1.419       .  A
C862        C863   1.416       .  A
C862        C867   1.451       .  S
C863        C864   1.411       .  A
C863        C870   1.450       .  S
C864        C865   1.413       .  A
C865        C866   1.417       .  A
C865        C868   1.451       .  S
C866        C869   1.449       .  S
C867        N874   1.157       .  T
C868        N873   1.157       .  T
C869        N871   1.157       .  T
C870        N872   1.157       .  T
C875        C876   1.425       .  A
C875        C880   1.423       .  A
C876        C877   1.415       .  A
C876        C881   1.451       .  S
C877        C878   1.408       .  A
C877        C884   1.451   1_565  S
C878        C879   1.410       .  A
C879        C880   1.418       .  A
C879        C882   1.451       .  S
C880        C883   1.450       .  S
C881        N888   1.158       .  T
C882        N887   1.157       .  T
C883        N885   1.157       .  T
C884        N886   1.157       .  T
C889        C890   1.412       .  A
C889        C894   1.414       .  A
C890        C891   1.412       .  A
C890        C895   1.449       .  S
C891        C892   1.410       .  A
C891        C898   1.450       .  S
C892        C893   1.411       .  A
C893        C894   1.411       .  A
C893        C896   1.451       .  S
C894        C897   1.451       .  S
C895        N902   1.157       .  T
C896        N901   1.157       .  T
C897        N899   1.158       .  T
C898        N900   1.157       .  T
C903        C904   1.420       .  A
C903        C908   1.424       .  A
C904        C905   1.412       .  A
C904        C909   1.451       .  S
C905        C906   1.410       .  A
C905        C912   1.451       .  S
C906        C907   1.411       .  A
C907        C908   1.413       .  A
C907        C910   1.452       .  S
C908        C911   1.450       .  S
C909        N916   1.157       .  T
C910        N915   1.157       .  T
C911        N913   1.157       .  T
C912        N914   1.157   1_455  T
C917        C918   1.419       .  A
C917        C922   1.422       .  A
C918        C919   1.416       .  A
C918        C923   1.450       .  S
C919        C920   1.412       .  A
C919        C926   1.450       .  S
C920        C921   1.411       .  A
C921        C922   1.414       .  A
C921        C924   1.453       .  S
C922        C925   1.450   1_455  S
C923        N930   1.157       .  T
C924        N929   1.157   1_455  T
C925        N927   1.156       .  T
C926        N928   1.157       .  T
C931        C932   1.416       .  A
C931        C936   1.419       .  A
C932        C933   1.412       .  A
C932        C937   1.450       .  S
C933        C934   1.410       .  A
C933        C940   1.450       .  S
C934        C935   1.410       .  A
C935        C936   1.412       .  A
C935        C938   1.452       .  S
C936        C939   1.449       .  S
C937        N944   1.157       .  T
C938        N943   1.157       .  T
C939        N941   1.157       .  T
C940        N942   1.157       .  T
C945        C946   1.412       .  A
C945        C950   1.412       .  A
C946        C947   1.408       .  A
C946        C951   1.451       .  S
C947        C948   1.412       .  A
C947        C954   1.451       .  S
C948        C949   1.412       .  A
C949        C950   1.416       .  A
C949        C952   1.449       .  S
C950        C953   1.449       .  S
C951        N958   1.157       .  T
C952        N957   1.157       .  T
C953        N955   1.157       .  T
C954        N956   1.157       .  T
C959        C960   1.412       .  A
C959        C964   1.416       .  A
C960        C961   1.416       .  A
C960        C965   1.451       .  S
C961        C962   1.419       .  A
C961        C968   1.450       .  S
C962        C963   1.419       .  A
C963        C964   1.416       .  A
C963        C966   1.451       .  S
C964        C967   1.452       .  S
C965        N972   1.157       .  T
C966        N971   1.157       .  T
C967        N969   1.158       .  T
C968        N970   1.157       .  T
C973        C974   1.409       .  A
C973        C978   1.411       .  A
C974        C975   1.406       .  A
C974        C979   1.452       .  S
C975        C976   1.414       .  A
C975        C982   1.452   1_565  S
C976        C977   1.413       .  A
C977        C978   1.413       .  A
C977        C980   1.450       .  S
C978        C981   1.450       .  S
C979        N986   1.157       .  T
C980        N985   1.157       .  T
C981        N983   1.157       .  T
C982        N984   1.157       .  T
C987        C988   1.409       .  A
C987        C992   1.409       .  A
C988        C989   1.412       .  A
C988        C993   1.450       .  S
C989        C990   1.416       .  A
C989        C996   1.450       .  S
C990        C991   1.419       .  A
C991        C992   1.412       .  A
C991        C994   1.449       .  S
C992        C995   1.452       .  S
C993       N1000   1.157       .  T
C994        N999   1.157       .  T
C995        N997   1.157       .  T
C996        N998   1.157       .  T
C1001      C1002   1.415       .  A
C1001      C1006   1.415       .  A
C1002      C1003   1.414       .  A
C1002      C1007   1.452       .  S
C1003      C1004   1.416       .  A
C1003      C1010   1.448       .  S
C1004      C1005   1.417       .  A
C1005      C1006   1.416       .  A
C1005      C1008   1.449       .  S
C1006      C1009   1.452       .  S
C1007      N1014   1.158       .  T
C1008      N1013   1.157       .  T
C1009      N1011   1.157       .  T
C1010      N1012   1.156       .  T
C1015      C1016   1.411       .  A
C1015      C1020   1.412       .  A
C1016      C1017   1.413       .  A
C1016      C1021   1.450       .  S
C1017      C1018   1.411       .  A
C1017      C1024   1.449       .  S
C1018      C1019   1.411       .  A
C1019      C1020   1.409       .  A
C1019      C1022   1.451       .  S
C1020      C1023   1.451       .  S
C1021      N1028   1.157       .  T
C1022      N1027   1.157       .  T
C1023      N1025   1.157       .  T
C1024      N1026   1.157       .  T
C1029      C1030   1.421       .  A
C1029      C1034   1.427       .  A
C1030      C1031   1.413       .  A
C1030      C1035   1.450       .  S
C1031      C1032   1.412       .  A
C1031      C1038   1.453   1_556  S
C1032      C1033   1.410       .  A
C1033      C1034   1.414       .  A
C1033      C1036   1.453       .  S
C1034      C1037   1.450       .  S
C1035      N1042   1.157       .  T
C1036      N1041   1.157       .  T
C1037      N1039   1.157       .  T
C1038      N1040   1.157       .  T
C1043      C1044   1.408       .  A
C1043      C1048   1.409       .  A
C1044      C1045   1.419       .  A
C1044      C1049   1.451       .  S
C1045      C1046   1.426       .  A
C1045      C1052   1.449       .  S
C1046      C1047   1.425       .  A
C1047      C1048   1.413       .  A
C1047      C1050   1.451   1_565  S
C1048      C1051   1.453       .  S
C1049      N1056   1.157       .  T
C1050      N1055   1.157       .  T
C1051      N1053   1.157       .  T
C1052      N1054   1.157       .  T
C1057      C1058   1.421       .  A
C1057      C1062   1.420       .  A
C1058      C1059   1.412       .  A
C1058      C1063   1.449       .  S
C1059      C1060   1.411       .  A
C1059      C1066   1.453       .  S
C1060      C1061   1.410       .  A
C1061      C1062   1.414       .  A
C1061      C1064   1.451       .  S
C1062      C1065   1.451       .  S
C1063      N1070   1.157       .  T
C1064      N1069   1.157   1_556  T
C1065      N1067   1.157       .  T
C1066      N1068   1.157       .  T
C1071      C1072   1.411       .  A
C1071      C1076   1.411       .  A
C1072      C1073   1.411       .  A
C1072      C1077   1.451       .  S
C1073      C1074   1.414       .  A
C1073      C1080   1.451       .  S
C1074      C1075   1.413       .  A
C1075      C1076   1.415       .  A
C1075      C1078   1.449       .  S
C1076      C1079   1.449       .  S
C1077      N1084   1.157       .  T
C1078      N1083   1.157       .  T
C1079      N1081   1.157       .  T
C1080      N1082   1.157       .  T
C1085      C1086   1.417       .  A
C1085      C1090   1.416       .  A
C1086      C1087   1.414       .  A
C1086      C1091   1.452       .  S
C1087      C1088   1.414       .  A
C1087      C1094   1.448   1_556  S
C1088      C1089   1.416       .  A
C1089      C1090   1.418       .  A
C1089      C1092   1.450       .  S
C1090      C1093   1.450       .  S
C1091      N1098   1.158   1_556  T
C1092      N1097   1.157       .  T
C1093      N1095   1.157       .  T
C1094      N1096   1.156       .  T
C1099      C1100   1.410       .  A
C1099      C1104   1.410       .  A
C1100      C1101   1.413       .  A
C1100      C1105   1.452       .  S
C1101      C1102   1.422       .  A
C1101      C1108   1.449       .  S
C1102      C1103   1.420       .  A
C1103      C1104   1.412       .  A
C1103      C1106   1.452       .  S
C1104      C1107   1.451       .  S
C1105      N1112   1.157       .  T
C1106      N1111   1.157       .  T
C1107      N1109   1.157       .  T
C1108      N1110   1.157       .  T
C1113      C1114   1.410       .  A
C1113      C1118   1.411       .  A
C1114      C1115   1.409       .  A
C1114      C1119   1.451       .  S
C1115      C1116   1.413       .  A
C1115      C1122   1.451       .  S
C1116      C1117   1.412       .  A
C1117      C1118   1.412       .  A
C1117      C1120   1.449       .  S
C1118      C1121   1.450       .  S
C1119      N1126   1.157       .  T
C1120      N1125   1.157       .  T
C1121      N1123   1.157       .  T
C1122      N1124   1.157       .  T
C1127      C1128   1.419       .  A
C1127      C1132   1.416       .  A
C1128      C1129   1.413       .  A
C1128      C1133   1.450       .  S
C1129      C1130   1.415       .  A
C1129      C1136   1.453       .  S
C1130      C1131   1.414       .  A
C1131      C1132   1.415       .  A
C1131      C1134   1.450       .  S
C1132      C1135   1.451       .  S
C1133      N1140   1.157       .  T
C1134      N1139   1.157       .  T
C1135      N1137   1.157       .  T
C1136      N1138   1.158       .  T
C1141      C1142   1.412       .  A
C1141      C1146   1.413       .  A
C1142      C1143   1.412       .  A
C1142      C1147   1.450       .  S
C1143      C1144   1.412       .  A
C1143      C1150   1.451   1_556  S
C1144      C1145   1.410       .  A
C1145      C1146   1.413       .  A
C1145      C1148   1.450       .  S
C1146      C1149   1.450       .  S
C1147      N1154   1.157       .  T
C1148      N1153   1.157       .  T
C1149      N1151   1.157       .  T
C1150      N1152   1.157       .  T
C1155      C1156   1.410       .  A
C1155      C1160   1.410       .  A
C1156      C1157   1.412       .  A
C1156      C1161   1.451       .  S
C1157      C1158   1.419       .  A
C1157      C1164   1.452       .  S
C1158      C1159   1.421       .  A
C1159      C1160   1.416       .  A
C1159      C1162   1.448       .  S
C1160      C1163   1.451       .  S
C1161      N1168   1.157       .  T
C1162      N1167   1.157       .  T
C1163      N1165   1.157       .  T
C1164      N1166   1.157       .  T
C1169      C1170   1.428       .  A
C1169      C1174   1.426       .  A
C1170      C1171   1.414       .  A
C1170      C1175   1.452       .  S
C1171      C1172   1.407       .  A
C1171      C1178   1.452       .  S
C1172      C1173   1.408       .  A
C1173      C1174   1.416       .  A
C1173      C1176   1.452       .  S
C1174      C1177   1.451       .  S
C1175      N1182   1.158       .  T
C1176      N1181   1.157   1_556  T
C1177      N1179   1.157       .  T
C1178      N1180   1.157       .  T
C1183      C1184   1.412       .  A
C1183      C1188   1.412       .  A
C1184      C1185   1.413       .  A
C1184      C1189   1.450       .  S
C1185      C1186   1.410       .  A
C1185      C1192   1.450       .  S
C1186      C1187   1.412       .  A
C1187      C1188   1.408       .  A
C1187      C1190   1.452   1_556  S
C1188      C1191   1.451       .  S
C1189      N1196   1.157       .  T
C1190      N1195   1.157       .  T
C1191      N1193   1.157       .  T
C1192      N1194   1.157       .  T
C1197      C1198   1.418       .  A
C1197      C1202   1.421       .  A
C1198      C1199   1.410       .  A
C1198      C1203   1.452       .  S
C1199      C1200   1.411       .  A
C1199      C1206   1.451       .  S
C1200      C1201   1.411       .  A
C1201      C1202   1.414       .  A
C1201      C1204   1.452       .  S
C1202      C1205   1.449       .  S
C1203      N1210   1.157       .  T
C1204      N1209   1.157       .  T
C1205      N1207   1.157       .  T
C1206      N1208   1.157       .  T
C1211      C1212   1.407       .  A
C1211      C1216   1.407       .  A
C1212      C1213   1.413       .  A
C1212      C1217   1.453       .  S
C1213      C1214   1.431       .  A
C1213      C1220   1.453       .  S
C1214      C1215   1.425       .  A
C1215      C1216   1.416       .  A
C1215      C1218   1.449       .  S
C1216      C1219   1.452       .  S
C1217      N1224   1.157       .  T
C1218      N1223   1.157       .  T
C1219      N1221   1.157       .  T
C1220      N1222   1.158   1_566  T
C1225      C1226   1.414       .  A
C1225      C1230   1.412       .  A
C1226      C1227   1.414       .  A
C1226      C1231   1.450       .  S
C1227      C1228   1.410       .  A
C1227      C1234   1.449       .  S
C1228      C1229   1.412       .  A
C1229      C1230   1.409       .  A
C1229      C1232   1.452       .  S
C1230      C1233   1.450       .  S
C1231      N1238   1.157       .  T
C1232      N1237   1.157       .  T
C1233      N1235   1.157       .  T
C1234      N1236   1.157       .  T
C1239      C1240   1.409       .  A
C1239      C1244   1.409       .  A
C1240      C1241   1.413       .  A
C1240      C1245   1.451       .  S
C1241      C1242   1.416       .  A
C1241      C1248   1.448       .  S
C1242      C1243   1.419       .  A
C1243      C1244   1.412       .  A
C1243      C1246   1.447       .  S
C1244      C1247   1.452       .  S
C1245      N1252   1.157       .  T
C1246      N1251   1.156       .  T
C1247      N1249   1.157       .  T
C1248      N1250   1.157       .  T
C1253      C1254   1.409       .  A
C1253      C1258   1.410       .  A
C1254      C1255   1.418       .  A
C1254      C1259   1.450       .  S
C1255      C1256   1.425       .  A
C1255      C1262   1.450       .  S
C1256      C1257   1.429       .  A
C1257      C1258   1.416       .  A
C1257      C1260   1.452   1_565  S
C1258      C1261   1.454       .  S
C1259      N1266   1.157       .  T
C1260      N1265   1.157       .  T
C1261      N1263   1.157       .  T
C1262      N1264   1.157       .  T
C1267      C1268   1.410       .  A
C1267      C1272   1.409       .  A
C1268      C1269   1.411       .  A
C1268      C1273   1.452       .  S
C1269      C1270   1.420       .  A
C1269      C1276   1.450       .  S
C1270      C1271   1.417       .  A
C1271      C1272   1.409       .  A
C1271      C1274   1.451       .  S
C1272      C1275   1.451       .  S
C1273      N1280   1.157       .  T
C1274      N1279   1.157       .  T
C1275      N1277   1.157   1_455  T
C1276      N1278   1.157       .  T
C1281      C1282   1.412       .  A
C1281      C1286   1.413       .  A
C1282      C1283   1.413       .  A
C1282      C1287   1.449       .  S
C1283      C1284   1.411       .  A
C1283      C1290   1.450       .  S
C1284      C1285   1.411       .  A
C1285      C1286   1.409       .  A
C1285      C1288   1.451       .  S
C1286      C1289   1.452       .  S
C1287      N1294   1.157       .  T
C1288      N1293   1.157       .  T
C1289      N1291   1.157       .  T
C1290      N1292   1.157       .  T
C1295      C1296   1.417       .  A
C1295      C1300   1.417       .  A
C1296      C1297   1.415       .  A
C1296      C1301   1.450       .  S
C1297      C1298   1.414       .  A
C1297      C1304   1.451       .  S
C1298      C1299   1.415       .  A
C1299      C1300   1.414       .  A
C1299      C1302   1.453       .  S
C1300      C1303   1.448   1_455  S
C1301      N1308   1.157       .  T
C1302      N1307   1.158   1_455  T
C1303      N1305   1.156       .  T
C1304      N1306   1.157       .  T
C1309      C1310   1.421       .  A
C1309      C1314   1.418       .  A
C1310      C1311   1.414       .  A
C1310      C1315   1.450       .  S
C1311      C1312   1.411       .  A
C1311      C1318   1.452       .  S
C1312      C1313   1.410       .  A
C1313      C1314   1.411       .  A
C1313      C1316   1.450       .  S
C1314      C1317   1.451       .  S
C1315      N1322   1.157       .  T
C1316      N1321   1.157   1_556  T
C1317      N1319   1.157       .  T
C1318      N1320   1.157       .  T
C1323      C1324   1.413       .  A
C1323      C1328   1.412       .  A
C1324      C1325   1.408       .  A
C1324      C1329   1.452   1_455  S
C1325      C1326   1.411       .  A
C1325      C1332   1.452       .  S
C1326      C1327   1.411       .  A
C1327      C1328   1.412       .  A
C1327      C1330   1.450       .  S
C1328      C1331   1.450       .  S
C1329      N1336   1.157       .  T
C1330      N1335   1.157       .  T
C1331      N1333   1.157       .  T
C1332      N1334   1.157       .  T
C1337      C1338   1.418       .  A
C1337      C1342   1.418       .  A
C1338      C1339   1.413       .  A
C1338      C1343   1.449   1_556  S
C1339      C1340   1.413       .  A
C1339      C1346   1.453       .  S
C1340      C1341   1.413       .  A
C1341      C1342   1.416       .  A
C1341      C1344   1.451       .  S
C1342      C1345   1.450       .  S
C1343      N1350   1.156       .  T
C1344      N1349   1.157       .  T
C1345      N1347   1.157       .  T
C1346      N1348   1.158   1_556  T
C1351      C1352   1.413       .  A
C1351      C1356   1.412       .  A
C1352      C1353   1.416       .  A
C1352      C1357   1.449       .  S
C1353      C1354   1.413       .  A
C1353      C1360   1.450       .  S
C1354      C1355   1.413       .  A
C1355      C1356   1.410       .  A
C1355      C1358   1.452   1_556  S
C1356      C1359   1.451       .  S
C1357      N1364   1.157       .  T
C1358      N1363   1.157       .  T
C1359      N1361   1.157       .  T
C1360      N1362   1.157       .  T
C1365      C1366   1.420       .  A
C1365      C1370   1.417       .  A
C1366      C1367   1.416       .  A
C1366      C1371   1.450       .  S
C1367      C1368   1.411       .  A
C1367      C1374   1.451       .  S
C1368      C1369   1.411       .  A
C1369      C1370   1.413       .  A
C1369      C1372   1.450       .  S
C1370      C1373   1.451       .  S
C1371      N1378   1.157       .  T
C1372      N1377   1.157       .  T
C1373      N1375   1.157       .  T
C1374      N1376   1.157       .  T
C1379      C1380   1.416       .  A
C1379      C1384   1.414       .  A
C1380      C1381   1.414       .  A
C1380      C1385   1.453       .  S
C1381      C1382   1.416       .  A
C1381      C1388   1.449       .  S
C1382      C1383   1.418       .  A
C1383      C1384   1.418       .  A
C1383      C1386   1.450       .  S
C1384      C1387   1.451       .  S
C1385      N1392   1.158       .  T
C1386      N1391   1.157       .  T
C1387      N1389   1.157       .  T
C1388      N1390   1.156       .  T
C1393      C1394   1.413       .  A
C1393      C1398   1.411       .  A
C1394      C1395   1.410       .  A
C1394      C1399   1.451       .  S
C1395      C1396   1.412       .  A
C1395      C1402   1.451       .  S
C1396      C1397   1.410       .  A
C1397      C1398   1.411       .  A
C1397      C1400   1.450       .  S
C1398      C1401   1.449       .  S
C1399      N1406   1.157       .  T
C1400      N1405   1.157       .  T
C1401      N1403   1.157       .  T
C1402      N1404   1.157       .  T
C1407      C1408   1.419       .  A
C1407      C1412   1.418       .  A
C1408      C1409   1.413       .  A
C1408      C1413   1.450       .  S
C1409      C1410   1.413       .  A
C1409      C1416   1.452       .  S
C1410      C1411   1.410       .  A
C1411      C1412   1.411       .  A
C1411      C1414   1.451       .  S
C1412      C1415   1.451       .  S
C1413      N1420   1.157       .  T
C1414      N1419   1.157       .  T
C1415      N1417   1.157       .  T
C1416      N1418   1.157       .  T
C1421      C1422   1.413       .  A
C1421      C1426   1.411       .  A
C1422      C1423   1.413       .  A
C1422      C1427   1.453       .  S
C1423      C1424   1.417       .  A
C1423      C1430   1.450       .  S
C1424      C1425   1.419       .  A
C1425      C1426   1.413       .  A
C1425      C1428   1.450       .  S
C1426      C1429   1.451       .  S
C1427      N1434   1.158       .  T
C1428      N1433   1.157       .  T
C1429      N1431   1.157       .  T
C1430      N1432   1.157       .  T
C1435      C1436   1.413       .  A
C1435      C1440   1.412       .  A
C1436      C1437   1.415       .  A
C1436      C1441   1.452   1_455  S
C1437      C1438   1.422       .  A
C1437      C1444   1.451       .  S
C1438      C1439   1.424       .  A
C1439      C1440   1.414       .  A
C1439      C1442   1.450       .  S
C1440      C1443   1.452       .  S
C1441      N1448   1.157       .  T
C1442      N1447   1.157       .  T
C1443      N1445   1.157       .  T
C1444      N1446   1.157       .  T
C1449      C1450   1.412       .  A
C1449      C1454   1.411       .  A
C1450      C1451   1.415       .  A
C1450      C1455   1.449       .  S
C1451      C1452   1.412       .  A
C1451      C1458   1.450       .  S
C1452      C1453   1.412       .  A
C1453      C1454   1.409       .  A
C1453      C1456   1.451       .  S
C1454      C1457   1.450       .  S
C1455      N1462   1.157       .  T
C1456      N1461   1.157       .  T
C1457      N1459   1.157       .  T
C1458      N1460   1.157       .  T
C1463      C1464   1.425       .  A
C1463      C1468   1.425       .  A
C1464      C1465   1.414       .  A
C1464      C1469   1.450       .  S
C1465      C1466   1.407       .  A
C1465      C1472   1.451       .  S
C1466      C1467   1.410       .  A
C1467      C1468   1.412       .  A
C1467      C1470   1.453       .  S
C1468      C1471   1.452       .  S
C1469      N1476   1.157       .  T
C1470      N1475   1.157       .  T
C1471      N1473   1.157       .  T
C1472      N1474   1.157       .  T
C1477      C1478   1.410       .  A
C1477      C1482   1.411       .  A
C1478      C1479   1.414       .  A
C1478      C1483   1.450       .  S
C1479      C1480   1.413       .  A
C1479      C1486   1.449       .  S
C1480      C1481   1.412       .  A
C1481      C1482   1.407       .  A
C1481      C1484   1.452       .  S
C1482      C1485   1.452       .  S
C1483      N1490   1.157       .  T
C1484      N1489   1.157       .  T
C1485      N1487   1.157       .  T
C1486      N1488   1.157       .  T
C1491      C1492   1.419       .  A
C1491      C1496   1.413       .  A
C1492      C1493   1.412       .  A
C1492      C1497   1.449       .  S
C1493      C1494   1.410       .  A
C1493      C1500   1.452       .  S
C1494      C1495   1.408       .  A
C1495      C1496   1.412       .  A
C1495      C1498   1.450       .  S
C1496      C1499   1.447       .  S
C1497      N1504   1.157       .  T
C1498      N1503   1.157       .  T
C1499      N1501   1.157       .  T
C1500      N1502   1.157       .  T
C1505      C1506   1.415       .  A
C1505      C1510   1.415       .  A
C1506      C1507   1.416       .  A
C1506      C1511   1.451       .  S
C1507      C1508   1.416       .  A
C1507      C1514   1.447       .  S
C1508      C1509   1.421       .  A
C1509      C1510   1.414       .  A
C1509      C1512   1.453       .  S
C1510      C1513   1.450       .  S
C1511      N1518   1.157       .  T
C1512      N1517   1.158       .  T
C1513      N1515   1.156       .  T
C1514      N1516   1.156       .  T
C1519      C1520   1.411       .  A
C1519      C1524   1.411       .  A
C1520      C1521   1.408       .  A
C1520      C1525   1.451       .  S
C1521      C1522   1.413       .  A
C1521      C1528   1.452       .  S
C1522      C1523   1.412       .  A
C1523      C1524   1.413       .  A
C1523      C1526   1.450       .  S
C1524      C1527   1.450       .  S
C1525      N1532   1.157       .  T
C1526      N1531   1.157       .  T
C1527      N1529   1.157       .  T
C1528      N1530   1.157       .  T
C1533      C1534   1.420       .  A
C1533      C1538   1.418       .  A
C1534      C1535   1.410       .  A
C1534      C1539   1.449       .  S
C1535      C1536   1.409       .  A
C1535      C1542   1.452       .  S
C1536      C1537   1.409       .  A
C1537      C1538   1.412       .  A
C1537      C1540   1.450       .  S
C1538      C1541   1.451       .  S
C1539      N1546   1.157       .  T
C1540      N1545   1.157       .  T
C1541      N1543   1.157       .  T
C1542      N1544   1.157       .  T
C1547      C1548   1.418       .  A
C1547      C1552   1.419       .  A
C1548      C1549   1.412       .  A
C1548      C1553   1.453       .  S
C1549      C1550   1.413       .  A
C1549      C1556   1.447   1_556  S
C1550      C1551   1.414       .  A
C1551      C1552   1.416       .  A
C1551      C1554   1.451       .  S
C1552      C1555   1.451       .  S
C1553      N1560   1.158   1_556  T
C1554      N1559   1.157       .  T
C1555      N1557   1.157       .  T
C1556      N1558   1.155       .  T
C1561      C1562   1.412       .  A
C1561      C1566   1.409       .  A
C1562      C1563   1.410       .  A
C1562      C1567   1.450   1_556  S
C1563      C1564   1.412       .  A
C1563      C1570   1.451       .  S
C1564      C1565   1.414       .  A
C1565      C1566   1.415       .  A
C1565      C1568   1.449       .  S
C1566      C1569   1.449       .  S
C1567      N1574   1.157       .  T
C1568      N1573   1.157       .  T
C1569      N1571   1.157       .  T
C1570      N1572   1.157       .  T
C1575      C1576   1.421       .  A
C1575      C1580   1.421       .  A
C1576      C1577   1.413       .  A
C1576      C1581   1.452       .  S
C1577      C1578   1.410       .  A
C1577      C1584   1.451       .  S
C1578      C1579   1.412       .  A
C1579      C1580   1.416       .  A
C1579      C1582   1.452       .  S
C1580      C1583   1.449       .  S
C1581      N1588   1.157       .  T
C1582      N1587   1.157       .  T
C1583      N1585   1.157       .  T
C1584      N1586   1.157   1_455  T
C1589      C1590   1.418       .  A
C1589      C1594   1.418       .  A
C1590      C1591   1.417       .  A
C1590      C1595   1.449       .  S
C1591      C1592   1.414       .  A
C1591      C1598   1.451       .  S
C1592      C1593   1.416       .  A
C1593      C1594   1.413       .  A
C1593      C1596   1.449   1_455  S
C1594      C1597   1.454       .  S
C1595      N1602   1.157       .  T
C1596      N1601   1.156       .  T
C1597      N1599   1.158   1_455  T
C1598      N1600   1.157   1_556  T
