geometry optimzed in LAMMPS
_audit_creation_date              2020-12-01 
_audit_creation_method            'lammps2cif' 
_symmetry_space_group_name_H-M    'P1' 
_symmetry_Int_Tables_number       1 
_symmetry_cell_setting            triclinic 
loop_ 
_symmetry_equiv_pos_as_xyz 
  x,y,z 
_cell_length_a                    28.57866423 
_cell_length_b                    29.08197604547959 
_cell_length_c                    28.84338093212331 
_cell_angle_alpha                 92.07067223298148 
_cell_angle_beta                  91.37371552811584 
_cell_angle_gamma                 89.28023758084808 
loop_ 
_atom_site_label 
_atom_site_type_symbol 
_atom_site_fract_x 
_atom_site_fract_y 
_atom_site_fract_z 
_atom_site_charge 
C1          C  0.81885534  0.85012265  0.03413098     0.80000
N2          N  0.81704579  0.89552422  0.02348099    -0.78300
C3          C  0.81326262  0.90763725  0.97852097     0.82400
N4          N  0.81443091  0.87514451  0.94460249    -0.78200
C5          C  0.81823882  0.83018412  0.95291586     0.82500
N6          N  0.81934807  0.81675272  0.99834493    -0.80000
C7          C  0.78956013  0.28956025  0.05460527     0.80000
N8          N  0.83683110  0.29184170  0.05387760    -0.78300
C9          C  0.86013324  0.28894900  0.01430671     0.82400
N10         N  0.83627664  0.28203668  0.97428227    -0.78200
C11         C  0.78893527  0.27976865  0.97238303     0.82500
N12         N  0.76433756  0.28364593  0.01319032    -0.80000
C13         C  0.25119551  0.82409893  0.03391744     0.80000
N14         N  0.27845392  0.82548278  0.99522381    -0.78300
C15         C  0.25653060  0.82269105  0.95238319     0.82400
N16         N  0.20957665  0.81712654  0.94938761    -0.78200
C17         C  0.18351601  0.81472496  0.98704517     0.82500
N18         N  0.20417055  0.81960891  0.02914796    -0.80000
C19         C  0.82313710  0.09022939  0.76447514     0.80000
N20         N  0.86959467  0.09552337  0.76639457    -0.78300
C21         C  0.89935387  0.06005669  0.76301679     0.82400
N22         N  0.88267559  0.01662623  0.75906892    -0.78200
C23         C  0.83558868  0.00938928  0.75473416     0.82500
N24         N  0.80503009  0.04671300  0.75738727    -0.80000
C25         C  0.98781624  0.26688869  0.78837529     0.80000
N26         N  0.02562715  0.26198372  0.75899530    -0.78300
C27         C  0.07031182  0.25743633  0.77829351     0.82400
N28         N  0.07603523  0.25952394  0.82466845    -0.78200
C29         C  0.04039055  0.26476595  0.85337810     0.82500
N30         N  0.99613954  0.26706595  0.83547075    -0.80000
C31         C  0.99245213  0.85166579  0.75041087     0.80000
N32         N  0.99289716  0.89820716  0.75178912    -0.78300
C33         C  0.03196998  0.92109269  0.74217744     0.82400
N34         N  0.07159504  0.89757893  0.73344416    -0.78200
C35         C  0.07268164  0.85121013  0.73238923     0.82500
N36         N  0.03283341  0.82742391  0.74086409    -0.80000
C37         C  0.26984659  0.07840734  0.80724367     0.80000
N38         N  0.27301783  0.07677418  0.85391555    -0.78300
C39         C  0.27876868  0.03648773  0.87472195     0.82400
N40         N  0.27868764  0.99710936  0.84891253    -0.78200
C41         C  0.27595157  0.99768214  0.80205968     0.82500
N42         N  0.27203003  0.03866506  0.78046427    -0.80000
C43         C  0.99620542  0.80183596  0.18639857     0.80000
N44         N  0.99094147  0.80860542  0.14097599    -0.78300
C45         C  0.02725235  0.81311151  0.11355425     0.82400
N46         N  0.07145298  0.81141784  0.13183611    -0.78200
C47         C  0.07886363  0.80163229  0.17752931     0.82500
N48         N  0.04063654  0.79763284  0.20568238    -0.80000
C49         C  0.77202206  0.10545967  0.20833260     0.80000
N50         N  0.77317449  0.06372045  0.22958310    -0.78300
C51         C  0.77570827  0.02393129  0.20214521     0.82400
N52         N  0.77631917  0.02660015  0.15560467    -0.78200
C53         C  0.77356580  0.06731205  0.13525975     0.82500
N54         N  0.77276252  0.10632342  0.16152253    -0.80000
C55         C  0.97809829  0.24178452  0.28104663     0.80000
N56         N  0.97909840  0.19581783  0.27365106    -0.78300
C57         C  0.01957162  0.17289699  0.26722737     0.82400
N58         N  0.05992179  0.19605521  0.26616103    -0.78200
C59         C  0.06081197  0.24209683  0.27365929     0.82500
N60         N  0.01941260  0.26586901  0.28125435    -0.80000
Zr61       Zr  0.31693824  0.36888383  0.31907762     2.17500
O62         O  0.36034109  0.41183333  0.37981880    -0.51600
O63         O  0.30562996  0.45114719  0.30213742    -0.74800
O64         O  0.40159592  0.36678171  0.30272071    -0.81500
O65         O  0.22995978  0.31893386  0.41277464    -0.83300
O66         O  0.41551173  0.33852419  0.22979579    -0.78900
O67         O  0.29859743  0.35392733  0.39966856    -0.90500
O68         O  0.24799115  0.47035539  0.25087686    -0.76500
O69         O  0.30451273  0.38447131  0.23968048    -0.86000
O70         O  0.23465678  0.38091347  0.31078709    -0.85700
O71         O  0.34544790  0.29973198  0.27915531    -0.72400
O72         O  0.28190410  0.29812683  0.34017243    -0.84600
Zr73       Zr  0.21486280  0.25832829  0.20842777     2.26400
Zr74       Zr  0.33541879  0.31767319  0.19911773     2.06300
Zr75       Zr  0.19951259  0.31031064  0.33250318     2.10000
Zr76       Zr  0.22125451  0.39386112  0.23003447     1.78800
O77         O  0.17034836  0.24878168  0.37871962    -0.93400
O78         O  0.23794595  0.42885401  0.15682956    -0.41200
O79         O  0.18544676  0.32432784  0.25171932    -0.77800
O80         O  0.25155077  0.32858795  0.18700555    -0.96500
O81         O  0.29724621  0.24701175  0.21838414    -0.89800
O82         O  0.22583917  0.24312173  0.28848120    -0.92700
C83         C  0.28273569  0.48066369  0.27751652     1.01100
C84         C  0.26940797  0.33552915  0.42684307     1.14000
C85         C  0.42993731  0.35415931  0.27015287     1.04800
O86         O  0.35805853  0.38274303  0.15412111    -0.94800
O87         O  0.31653047  0.29260412  0.11903832    -0.90600
O88         O  0.24990983  0.25262000  0.13026305    -0.83700
C89         C  0.28344419  0.26599703  0.10441477     1.11400
O90         O  0.36983665  0.22739976  0.35732685    -0.96800
Zr91       Zr  0.30758601  0.22996405  0.29796249     1.88900
O92         O  0.22221876  0.17375009  0.21419664    -0.73400
O93         O  0.39124400  0.26123881  0.16815051    -0.52700
O94         O  0.37756839  0.19049510  0.26952690    -0.97400
O95         O  0.28240509  0.19003349  0.36586060    -0.54600
O96         O  0.28114228  0.15532814  0.26461274    -0.74000
C97         C  0.24791378  0.14403136  0.23569833     0.98400
O98         O  0.15510521  0.24570478  0.14774024    -0.62800
O99         O  0.14852956  0.36896633  0.36757023    -0.57600
O100        O  0.13402853  0.24986451  0.23731931    -0.94300
O101        O  0.12145789  0.28851136  0.30622736    -0.92700
O102        O  0.15616267  0.43951961  0.26049386    -0.93000
O103        O  0.15237090  0.39029891  0.17874784    -0.91800
C104        C  0.10763335  0.26322507  0.27144807     1.17200
H105        H  0.22448647  0.40686675  0.32999026     0.33200
H106        H  0.24449218  0.33462238  0.15489389     0.44000
H107        H  0.20818537  0.21654576  0.29643205     0.37600
H108        H  0.37722887  0.29141894  0.28717071     0.34000
H109        H  0.22341353  0.45991236  0.15918726     0.25800
H110        H  0.41678310  0.27958069  0.15579509     0.31800
H111        H  0.37651648  0.15933165  0.28218060     0.37700
H112        H  0.14518080  0.42228132  0.28704275     0.32100
H113        H  0.12649132  0.35153190  0.38601773     0.31000
H114        H  0.15215107  0.26464510  0.40345811     0.32700
H115        H  0.24939402  0.18172478  0.35920039     0.31700
H116        H  0.15233937  0.35836875  0.16560803     0.35700
H117        H  0.15883149  0.27110912  0.12622610     0.28400
H118        H  0.37683280  0.43581181  0.36330806     0.32600
H119        H  0.37425903  0.19450543  0.36424239     0.35500
H120        H  0.16841073  0.38559775  0.39104762     0.28100
H121        H  0.16532579  0.21764929  0.13010212     0.41000
H122        H  0.39214296  0.37866634  0.14981808     0.31000
H123        H  0.27204857  0.43448824  0.15835262     0.38600
H124        H  0.28073256  0.21425193  0.39082652     0.30500
H125        H  0.40528086  0.24678892  0.19584665     0.30500
H126        H  0.38546781  0.39066608  0.39047042     0.30800
C127        C  0.23533887  0.09414666  0.22863205     0.80000
N128        N  0.18879728  0.08389171  0.22348909    -0.78300
C129        C  0.17504069  0.03944390  0.21831708     0.82400
N130        N  0.20734314  0.00598445  0.21531797    -0.78200
C131        C  0.25345274  0.01418094  0.21889349     0.82500
N132        N  0.26830375  0.05875180  0.22686880    -0.80000
Zr133      Zr  0.34389001  0.76699349  0.30592136     2.17500
O134        O  0.40100036  0.71509410  0.34144869    -0.51600
O135        O  0.32143464  0.76556950  0.38726274    -0.74800
O136        O  0.42088867  0.80405313  0.31947692    -0.81500
O137        O  0.26297875  0.66697930  0.26066152    -0.83300
O138        O  0.43378601  0.86161426  0.27068214    -0.78900
O139        O  0.33655198  0.68385714  0.28766069    -0.90500
O140        O  0.26389454  0.81621029  0.40759393    -0.76500
O141        O  0.32806965  0.84619472  0.32314753    -0.86000
O142        O  0.26114673  0.77016019  0.31618365    -0.85700
O143        O  0.36799840  0.80586181  0.23848303    -0.72400
O144        O  0.30835661  0.73904252  0.23415273    -0.84600
Zr145      Zr  0.23416853  0.86292330  0.19498897     2.26400
Zr146      Zr  0.35209179  0.88669958  0.25598099     2.06300
Zr147      Zr  0.22542012  0.74278569  0.24445605     2.10000
Zr148      Zr  0.24523885  0.84966927  0.33318075     1.78800
O149        O  0.20121120  0.68900360  0.18205601    -0.93400
O150        O  0.27312999  0.91623251  0.37915955    -0.41200
O151        O  0.20908412  0.82274345  0.26135633    -0.77800
O152        O  0.26822314  0.89060295  0.26750297    -0.96500
O153        O  0.31617593  0.85899936  0.18365493    -0.89800
O154        O  0.24953808  0.78359251  0.17846309    -0.92700
C155        C  0.29224764  0.78315411  0.41648044     1.01100
C156        C  0.30479101  0.65479001  0.27393228     1.14000
C157        C  0.44832610  0.82775084  0.29490698     1.04800
O158        O  0.37946156  0.93520942  0.32142729    -0.94800
O159        O  0.31660041  0.96286264  0.24172268    -0.90600
O160        O  0.26530137  0.94086451  0.18457364    -0.83700
C161        C  0.28263819  0.97167230  0.21321736     1.11400
O162        O  0.39448182  0.72157423  0.16349867    -0.96800
Zr163      Zr  0.33187834  0.77923686  0.16779916     1.88900
O164        O  0.24193658  0.84768381  0.11149698    -0.73400
O165        O  0.39844027  0.92530764  0.19956178    -0.52700
O166        O  0.40240008  0.81197879  0.13725190    -0.97400
O167        O  0.31010123  0.71081494  0.12108863    -0.54600
O168        O  0.30643123  0.80540860  0.09278173    -0.74000
C169        C  0.26911630  0.82741558  0.08196667     0.98400
O170        O  0.16771366  0.91339269  0.17872925    -0.62800
O171        O  0.17520424  0.70794272  0.30018913    -0.57600
O172        O  0.15333401  0.83631566  0.18459298    -0.94300
O173        O  0.14549913  0.76680243  0.21745717    -0.92700
O174        O  0.17159269  0.82699545  0.36587892    -0.93000
O175        O  0.18427197  0.90888172  0.33774478    -0.91800
C176        C  0.12868903  0.80163955  0.19548167     1.17200
H177        H  0.25071770  0.75062620  0.34014106     0.33200
H178        H  0.25647265  0.92110341  0.27486863     0.44000
H179        H  0.23210936  0.77263319  0.15126473     0.37600
H180        H  0.39990616  0.79799806  0.23147199     0.34000
H181        H  0.30189901  0.90534654  0.39535190     0.25800
H182        H  0.42670595  0.93597311  0.21710927     0.31800
H183        H  0.40174732  0.80306210  0.10379887     0.37700
H184        H  0.15171575  0.81743846  0.33872050     0.32100
H185        H  0.15325772  0.73285406  0.30993108     0.31000
H186        H  0.18009262  0.66744369  0.19682652     0.32700
H187        H  0.27742294  0.71628219  0.11034094     0.31700
H188        H  0.17276843  0.91193277  0.30532569     0.35700
H189        H  0.16155918  0.92960619  0.20874866     0.28400
H190        H  0.41580428  0.73274686  0.36777175     0.32600
H191        H  0.40305784  0.71923221  0.13042303     0.35500
H192        H  0.15565265  0.68608481  0.28137695     0.28100
H193        H  0.17914036  0.93704377  0.15808900     0.41000
H194        H  0.39608422  0.91398798  0.34245459     0.31000
H195        H  0.28445106  0.93776131  0.35620147     0.38600
H196        H  0.30776763  0.68615467  0.14368764     0.30500
H197        H  0.40991891  0.90026046  0.17846846     0.30500
H198        H  0.42597251  0.71036046  0.31854309     0.30800
Zr199      Zr  0.82313541  0.26094074  0.21380328     2.17500
O200        O  0.87667053  0.22964403  0.15561953    -0.51600
O201        O  0.80287969  0.17946287  0.21304885    -0.74800
O202        O  0.90417864  0.25119741  0.24455792    -0.81500
O203        O  0.73147833  0.30437312  0.11430237    -0.83300
O204        O  0.91649422  0.28607522  0.31566597    -0.78900
O205        O  0.80272366  0.27371880  0.13229651    -0.90500
O206        O  0.74760815  0.16293773  0.26480795    -0.76500
O207        O  0.81160235  0.24779912  0.29357064    -0.86000
O208        O  0.74061590  0.25198467  0.21877918    -0.85700
O209        O  0.85246671  0.32835004  0.25487602    -0.72400
O210        O  0.78684785  0.33015591  0.18717659    -0.84600
Zr211      Zr  0.72333175  0.37775702  0.31685635     2.26400
Zr212      Zr  0.83896039  0.31586453  0.33576214     2.06300
Zr213      Zr  0.70388645  0.32242493  0.19356169     2.10000
Zr214      Zr  0.72921320  0.23905536  0.29895716     1.78800
O215        O  0.67738519  0.38761779  0.14871344    -0.93400
O216        O  0.75812210  0.19420423  0.36361481    -0.41200
O217        O  0.69515226  0.31033144  0.27482775    -0.77800
O218        O  0.75610754  0.30589554  0.34301487    -0.96500
O219        O  0.80494042  0.38617434  0.30875554    -0.89800
O220        O  0.73287976  0.39008577  0.23622988    -0.92700
C221        C  0.77546842  0.15129189  0.23216378     1.01100
C222        C  0.77166416  0.28789582  0.10263054     1.14000
C223        C  0.93062899  0.26263518  0.28005449     1.04800
O224        O  0.86370635  0.25818665  0.39068227    -0.94800
O225        O  0.81466135  0.34263872  0.41400594    -0.90600
O226        O  0.74539697  0.38004632  0.40132295    -0.83700
C227        C  0.77897649  0.36602004  0.42863453     1.11400
O228        O  0.87098186  0.38893667  0.16489025    -0.96800
Zr229      Zr  0.81573463  0.39693786  0.22785566     1.88900
O230        O  0.74949777  0.45878287  0.31359066    -0.73400
O231        O  0.89563336  0.37277045  0.36388238    -0.52700
O232        O  0.89208602  0.42620017  0.25333035    -0.97400
O233        O  0.79129193  0.44179010  0.16150069    -0.54600
O234        O  0.80146887  0.47394063  0.25810385    -0.74000
C235        C  0.77675019  0.48627199  0.29264454     0.98400
O236        O  0.66252738  0.41483755  0.36329569    -0.62800
O237        O  0.64925496  0.26646087  0.15890269    -0.57600
O238        O  0.64101160  0.36918135  0.28938181    -0.94300
O239        O  0.62324065  0.33706562  0.21835116    -0.92700
O240        O  0.65369967  0.20774355  0.27387828    -0.93000
O241        O  0.67031457  0.23660039  0.35841128    -0.91800
C242        C  0.61110092  0.35380052  0.25807247     1.17200
H243        H  0.72958469  0.22656210  0.19924241     0.33200
H244        H  0.74782470  0.30008508  0.37445404     0.44000
H245        H  0.71634311  0.41767045  0.22729368     0.37600
H246        H  0.88520877  0.33277774  0.24931774     0.34000
H247        H  0.78488343  0.17605087  0.35124227     0.25800
H248        H  0.91562651  0.35635071  0.38657714     0.31800
H249        H  0.88591441  0.44804138  0.27964962     0.37700
H250        H  0.65731873  0.19882988  0.24069752     0.32100
H251        H  0.63562885  0.28159901  0.13141534     0.31000
H252        H  0.65970664  0.37370791  0.12191714     0.32700
H253        H  0.76361904  0.45986609  0.17180161     0.31700
H254        H  0.65702085  0.26820920  0.36027498     0.35700
H255        H  0.65512052  0.39203111  0.38663361     0.28400
H256        H  0.89142070  0.20204596  0.16915954     0.32600
H257        H  0.88443664  0.41987396  0.16194505     0.35500
H258        H  0.66879744  0.24108643  0.14578471     0.28100
H259        H  0.67824564  0.44012884  0.38124708     0.41000
H260        H  0.86569225  0.22900848  0.37201734     0.31000
H261        H  0.77260341  0.21700730  0.38567556     0.38600
H262        H  0.77850381  0.41881209  0.13855365     0.30500
H263        H  0.91617255  0.37724803  0.33729155     0.30500
H264        H  0.90217635  0.25227344  0.15428205     0.30800
Zr265      Zr  0.73663243  0.76435886  0.30035429     2.17500
O266        O  0.67738036  0.70907734  0.32045503    -0.51600
O267        O  0.73289144  0.78002866  0.38396704    -0.74800
O268        O  0.76521804  0.68514016  0.30605861    -0.81500
O269        O  0.63851349  0.85576037  0.26437331    -0.83300
O270        O  0.83750013  0.67329924  0.27667859    -0.78900
O271        O  0.65486415  0.78385563  0.28829671    -0.90500
O272        O  0.78512686  0.83310778  0.41119394    -0.76500
O273        O  0.81624153  0.77529438  0.32276838    -0.86000
O274        O  0.74190694  0.84436875  0.31950350    -0.85700
O275        O  0.77875703  0.73904284  0.23267161    -0.72400
O276        O  0.71192458  0.80258964  0.23158051    -0.84600
Zr277      Zr  0.84359817  0.87111707  0.20336331     2.26400
Zr278      Zr  0.85919652  0.75142051  0.25521573     2.06300
Zr279      Zr  0.71854263  0.88305835  0.25076294     2.10000
Zr280      Zr  0.82221502  0.85592636  0.34014463     1.78800
O281        O  0.67125312  0.90960211  0.18539738    -0.93400
O282        O  0.88563257  0.82958706  0.39096882    -0.41200
O283        O  0.79982888  0.89451457  0.27074143    -0.77800
O284        O  0.86721951  0.83273607  0.27354262    -0.96500
O285        O  0.83674582  0.79096332  0.18578186    -0.89800
O286        O  0.76308748  0.86050417  0.18347674    -0.92700
C287        C  0.75128312  0.80548417  0.41678152     1.01100
C288        C  0.62584105  0.81580242  0.27676272     1.14000
C289        C  0.80057132  0.65913299  0.29614856     1.04800
O290        O  0.91162239  0.73000583  0.31880468    -0.94800
O291        O  0.93808731  0.77180360  0.23440905    -0.90600
O292        O  0.92425910  0.83925796  0.19848288    -0.83700
C293        C  0.95132789  0.80544365  0.21071091     1.11400
O294        O  0.69452598  0.72376827  0.15392006    -0.96800
Zr295      Zr  0.75645098  0.78024146  0.16492139     1.88900
O296        O  0.83477223  0.86562703  0.11629908    -0.73400
O297        O  0.89041985  0.69827290  0.19616116    -0.52700
O298        O  0.78542320  0.71120021  0.12419094    -0.97400
O299        O  0.69141350  0.81006045  0.11799993    -0.54600
O300        O  0.79047363  0.80420656  0.09352831    -0.74000
C301        C  0.81564176  0.83864306  0.08442685     0.98400
O302        O  0.90081775  0.93167953  0.19507616    -0.62800
O303        O  0.68454788  0.93746473  0.30723852    -0.57600
O304        O  0.81435672  0.95176471  0.20464070    -0.94300
O305        O  0.74385444  0.96107928  0.23938160    -0.92700
O306        O  0.79111165  0.92660085  0.37606593    -0.93000
O307        O  0.88225159  0.91417712  0.35212481    -0.91800
C308        C  0.77930093  0.97670352  0.21897605     1.17200
H309        H  0.72133083  0.85420974  0.34409628     0.33200
H310        H  0.89936441  0.83969519  0.28177110     0.44000
H311        H  0.75414949  0.87903179  0.15753115     0.37600
H312        H  0.77302928  0.70709613  0.22457461     0.34000
H313        H  0.88309497  0.84917517  0.41962901     0.25800
H314        H  0.91270067  0.67831791  0.21321687     0.31800
H315        H  0.81842969  0.71787408  0.11752251     0.37700
H316        H  0.77759272  0.94400816  0.34997985     0.32100
H317        H  0.66225249  0.95630937  0.28894613     0.31000
H318        H  0.64529728  0.92746822  0.19970118     0.32700
H319        H  0.70213978  0.83952764  0.10607591     0.31700
H320        H  0.89019892  0.92305947  0.32046720     0.35700
H321        H  0.92398252  0.92774677  0.22076112     0.28400
H322        H  0.68945504  0.69378466  0.34852795     0.32600
H323        H  0.69031602  0.71926946  0.11988405     0.35500
H324        H  0.66451104  0.91898429  0.32677702     0.28100
H325        H  0.91787461  0.92313000  0.16648956     0.41000
H326        H  0.92336448  0.75964340  0.33210920     0.31000
H327        H  0.87601921  0.79872105  0.40027459     0.38600
H328        H  0.66717262  0.81904921  0.14066287     0.30500
H329        H  0.86401732  0.67791329  0.18701144     0.30500
H330        H  0.67720089  0.68485883  0.29540479     0.30800
C331        C  0.28648241  0.24081693  0.05874277     0.80000
N332        N  0.27756378  0.19604959  0.06216872    -0.78300
C333        C  0.26912183  0.16847579  0.02517062     0.82400
N334        N  0.26941153  0.18564301  0.98210487    -0.78200
C335        C  0.28139600  0.23030249  0.97621361     0.82500
N336        N  0.28916590  0.25893523  0.01518972    -0.80000
Zr337      Zr  0.22343485  0.23667353  0.81602467     2.17500
O338        O  0.16665054  0.22384005  0.87547098    -0.51600
O339        O  0.24179438  0.15420853  0.81273609    -0.74800
O340        O  0.14547696  0.22348268  0.77696864    -0.81500
O341        O  0.31823095  0.26773579  0.91359940    -0.83300
O342        O  0.12773679  0.27362266  0.72069224    -0.78900
O343        O  0.24803381  0.23311379  0.89929853    -0.90500
O344        O  0.28829645  0.13263208  0.75289995    -0.76500
O345        O  0.23407274  0.21909826  0.73546318    -0.86000
O346        O  0.30520257  0.22236006  0.80936599    -0.85700
O347        O  0.19767793  0.30435827  0.77662435    -0.72400
O348        O  0.26109208  0.30602486  0.84427590    -0.84600
Zr349      Zr  0.32800807  0.33878835  0.71606707     2.26400
Zr350      Zr  0.20801593  0.28628143  0.69434005     2.06300
Zr351      Zr  0.34340529  0.29132587  0.83701992     2.10000
Zr352      Zr  0.31633985  0.20504369  0.72900468     1.78800
O353        O  0.36437018  0.35366193  0.89185187    -0.93400
O354        O  0.29306835  0.16198452  0.65824766    -0.41200
O355        O  0.35608217  0.27310949  0.75628114    -0.77800
O356        O  0.29059818  0.26964691  0.68747156    -0.96500
O357        O  0.24688001  0.35529071  0.72233682    -0.89800
O358        O  0.31785331  0.35807378  0.79606464    -0.92700
C359        C  0.26488018  0.12404618  0.78843057     1.01100
C360        C  0.28226648  0.24594533  0.92698707     1.14000
C361        C  0.11573755  0.24900516  0.75450996     1.04800
O362        O  0.18139729  0.22093247  0.64605852    -0.94800
O363        O  0.23611090  0.30500714  0.61592108    -0.90600
O364        O  0.30645659  0.33743264  0.63393972    -0.83700
C365        C  0.27503795  0.32309275  0.60430905     1.11400
O366        O  0.17805471  0.38020931  0.86322286    -0.96800
Zr367      Zr  0.23623348  0.37265094  0.80296976     1.88900
O368        O  0.30929790  0.41989913  0.71389410    -0.73400
O369        O  0.15658794  0.34266392  0.65783270    -0.52700
O370        O  0.16162141  0.40410303  0.77535628    -0.97400
O371        O  0.25891611  0.42175893  0.86975855    -0.54600
O372        O  0.25766865  0.44410986  0.76831656    -0.74000
C373        C  0.28360909  0.45079901  0.73372174     0.98400
O374        O  0.39354573  0.35719012  0.66754466    -0.62800
O375        O  0.39934022  0.23456141  0.86576557    -0.57600
O376        O  0.40710020  0.34917534  0.74709740    -0.94300
O377        O  0.42140508  0.31796362  0.81720874    -0.92700
O378        O  0.38413062  0.16341714  0.75954683    -0.93000
O379        O  0.38032295  0.20029200  0.67463010    -0.91800
C380        C  0.43408368  0.34021582  0.78203635     1.17200
H381        H  0.31589589  0.19726974  0.82810794     0.33200
H382        H  0.29882972  0.26033606  0.65630462     0.44000
H383        H  0.33582381  0.38484374  0.80561625     0.37600
H384        H  0.16589591  0.31180015  0.78459463     0.34000
H385        H  0.30961995  0.13197258  0.66025853     0.25800
H386        H  0.13649071  0.35486325  0.68302373     0.31800
H387        H  0.16854539  0.41800468  0.74549001     0.37700
H388        H  0.38306205  0.13274133  0.74351829     0.32100
H389        H  0.41913299  0.22635906  0.83892584     0.31000
H390        H  0.38930578  0.34045631  0.91192480     0.32700
H391        H  0.28432421  0.44115642  0.85880503     0.31700
H392        H  0.38440491  0.23224370  0.66482369     0.35700
H393        H  0.39719421  0.33045865  0.64561631     0.28400
H394        H  0.14266746  0.20333308  0.86099882     0.32600
H395        H  0.16779219  0.34835611  0.86795763     0.35500
H396        H  0.42020012  0.25214579  0.88761403     0.28100
H397        H  0.38250909  0.38279906  0.64821262     0.41000
H398        H  0.15251174  0.23215933  0.63031979     0.31000
H399        H  0.25970108  0.15469511  0.66234024     0.38600
H400        H  0.27467233  0.40068038  0.89152748     0.30500
H401        H  0.17713699  0.36868562  0.65123617     0.30500
H402        H  0.15099005  0.25411879  0.88020178     0.30800
Zr403      Zr  0.22703234  0.84297110  0.79582506     2.17500
O404        O  0.16342885  0.87414994  0.84291909    -0.51600
O405        O  0.24594773  0.92404626  0.79730986    -0.74800
O406        O  0.24858957  0.84617872  0.87777494    -0.81500
O407        O  0.13391480  0.80673396  0.69868524    -0.79100
O408        O  0.31674550  0.80892660  0.89558754    -0.78900
O409        O  0.14612334  0.84581620  0.76758170    -0.90500
O410        O  0.29833161  0.94302043  0.74370333    -0.76500
O411        O  0.30765649  0.85813687  0.78831435    -0.86000
O412        O  0.23554846  0.85534337  0.71563049    -0.85700
O413        O  0.26481907  0.77473875  0.82366814    -0.72400
O414        O  0.20050531  0.77368158  0.75697474    -0.84600
Zr415      Zr  0.33371162  0.73125658  0.69671364     2.26400
Zr416      Zr  0.34709636  0.79093824  0.81724423     2.06300
Zr417      Zr  0.21266237  0.78463224  0.67639927     2.10000
Zr418      Zr  0.31651392  0.86902956  0.70724727     1.78800
O419        O  0.16088465  0.72331644  0.64807315    -0.93400
O420        O  0.39127945  0.90531870  0.72641907    -0.41200
O421        O  0.29441170  0.79850236  0.66782110    -0.77800
O422        O  0.35710966  0.80300320  0.73460911    -0.96500
O423        O  0.32258761  0.72044256  0.77712569    -0.89800
O424        O  0.25215287  0.71722384  0.70279980    -0.92700
C425        C  0.27214714  0.95284637  0.77796288     1.01100
C426        C  0.11977632  0.83115901  0.73355336     1.14000
C427        C  0.27794997  0.82886941  0.90698867     1.04800
O428        O  0.39296677  0.84991169  0.85883237    -0.94800
O429        O  0.42771860  0.78060826  0.79201797    -0.90600
O430        O  0.40721035  0.72216163  0.74411422    -0.83700
C431        C  0.43757143  0.75195120  0.75893090     1.11400
O432        O  0.17958800  0.70414714  0.84019066    -0.96800
Zr433      Zr  0.24087892  0.70663133  0.78313786     1.88900
O434        O  0.31309137  0.64952948  0.69666499    -0.73400
O435        O  0.38140192  0.72800634  0.86045337    -0.52700
O436        O  0.26707113  0.66835825  0.85300222    -0.97400
O437        O  0.17126464  0.66564686  0.75504826    -0.54600
O438        O  0.26954601  0.63222376  0.75813101    -0.74000
C439        C  0.29146223  0.62103306  0.72148286     0.98400
O440        O  0.39324371  0.69355205  0.65037348    -0.62800
O441        O  0.18015014  0.83999036  0.62263390    -0.57600
O442        O  0.31697963  0.73522127  0.61176608    -0.94300
O443        O  0.24231373  0.76192239  0.60050547    -0.92700
O444        O  0.27940669  0.91306137  0.64590971    -0.93000
O445        O  0.36786998  0.87224018  0.64124895    -0.91800
C446        C  0.28120766  0.74550519  0.58545024     1.17200
H447        H  0.21643363  0.88102604  0.70584011     0.33200
H448        H  0.38830007  0.81068033  0.72603284     0.44000
H449        H  0.24157669  0.69139241  0.68353922     0.37600
H450        H  0.25566989  0.76676736  0.85419933     0.34000
H451        H  0.38790944  0.93707822  0.71540585     0.25800
H452        H  0.40089696  0.74336487  0.88511632     0.31800
H453        H  0.29872090  0.65620274  0.84594429     0.37700
H454        H  0.29969497  0.94011048  0.64298265     0.32100
H455        H  0.20720645  0.85006473  0.60492504     0.31000
H456        H  0.15623684  0.72842109  0.61452302     0.32700
H457        H  0.17381615  0.63510132  0.76906219     0.31700
H458        H  0.37873119  0.84009111  0.63568628     0.35700
H459        H  0.41276606  0.67524949  0.67188553     0.28400
H460        H  0.17638229  0.90154706  0.85984649     0.32600
H461        H  0.17127872  0.73679860  0.84707112     0.35500
H462        H  0.16118184  0.82135430  0.59994963     0.28100
H463        H  0.37492973  0.66986537  0.63266489     0.41000
H464        H  0.37569733  0.87906994  0.85363012     0.31000
H465        H  0.39191721  0.90897606  0.76069710     0.38600
H466        H  0.17607474  0.65921266  0.72157032     0.30500
H467        H  0.35488219  0.71530756  0.87712468     0.30500
H468        H  0.15850009  0.85147887  0.86708111     0.30800
Zr469      Zr  0.82367627  0.24937840  0.81519866     2.17500
O470        O  0.88002064  0.21260930  0.86755876    -0.51600
O471        O  0.81840249  0.16594828  0.79500819    -0.74800
O472        O  0.80022221  0.25319878  0.89652365    -0.81500
O473        O  0.92268601  0.28272321  0.73246467    -0.83300
O474        O  0.73125716  0.29013368  0.90991409    -0.78900
O475        O  0.90775703  0.25768202  0.80413623    -0.90500
O476        O  0.76236479  0.14262248  0.74287206    -0.76500
O477        O  0.74309238  0.23234085  0.80398458    -0.86000
O478        O  0.81600320  0.23253027  0.73409540    -0.85700
O479        O  0.78482635  0.32065465  0.83893634    -0.72400
O480        O  0.84956511  0.31801578  0.77879768    -0.84600
Zr481      Zr  0.71597551  0.35172648  0.70862405     2.26400
Zr482      Zr  0.70340766  0.30205636  0.82928694     2.06300
Zr483      Zr  0.84272308  0.29990862  0.69769518     2.10000
Zr484      Zr  0.73413857  0.21768625  0.72178692     1.78800
O485        O  0.89736832  0.35647932  0.67137713    -0.93400
O486        O  0.66577575  0.17591427  0.74525957    -0.41200
O487        O  0.76031943  0.28447826  0.68432215    -0.77800
O488        O  0.69122716  0.28442261  0.74728439    -0.96500
O489        O  0.72590244  0.36941489  0.78921632    -0.89800
O490        O  0.79745059  0.36856890  0.71834698    -0.92700
C491        C  0.79737851  0.13452054  0.76954085     1.01100
C492        C  0.93656115  0.26880723  0.77286062     1.14000
C493        C  0.76992400  0.27177142  0.92412806     1.04800
O494        O  0.65475887  0.23978440  0.85398341    -0.94800
O495        O  0.62526911  0.32788310  0.80595852    -0.90600
O496        O  0.63456661  0.35947233  0.73557667    -0.83700
C497        C  0.60962666  0.34926955  0.77060835     1.11400
O498        O  0.87053232  0.39320444  0.85564858    -0.96800
Zr499      Zr  0.80635987  0.38775880  0.79854972     1.88900
O500        O  0.71038911  0.43616269  0.72287534    -0.73400
O501        O  0.66777077  0.35899366  0.88200131    -0.52700
O502        O  0.78621584  0.43329508  0.86797020    -0.97400
O503        O  0.86736546  0.43289402  0.76460502    -0.54600
O504        O  0.76402547  0.45899316  0.77791005    -0.74000
C505        C  0.72957528  0.46746432  0.74976188     0.98400
O506        O  0.66213056  0.35867697  0.64233735    -0.62800
O507        O  0.87296459  0.23830936  0.64683622    -0.57600
O508        O  0.74775364  0.35530052  0.63016290    -0.94300
O509        O  0.82013599  0.32338226  0.61918322    -0.92700
O510        O  0.75927309  0.17373335  0.65315048    -0.93000
O511        O  0.67505238  0.21923541  0.65953708    -0.91800
C512        C  0.78337613  0.34492731  0.60467181     1.17200
H513        H  0.83519906  0.20663185  0.72411119     0.33200
H514        H  0.65884414  0.27759639  0.74011877     0.44000
H515        H  0.80558288  0.39392001  0.69948952     0.37600
H516        H  0.79333425  0.33023045  0.87025091     0.34000
H517        H  0.66631886  0.14688867  0.72622388     0.25800
H518        H  0.65217308  0.34086453  0.90546585     0.31800
H519        H  0.77495188  0.41083280  0.89000095     0.37700
H520        H  0.76647477  0.19719999  0.63042128     0.32100
H521        H  0.85230503  0.23823170  0.61879146     0.31000
H522        H  0.92274258  0.33809399  0.65666809     0.32700
H523        H  0.85152504  0.45072583  0.74006698     0.31700
H524        H  0.67814716  0.24985098  0.64605726     0.35700
H525        H  0.63989174  0.33308388  0.64470843     0.28400
H526        H  0.86237309  0.18903467  0.88358135     0.32600
H527        H  0.88280214  0.42473671  0.85367617     0.35500
H528        H  0.90323588  0.24987409  0.63633622     0.28100
H529        H  0.64342757  0.38692758  0.64902776     0.41000
H530        H  0.63227771  0.23419690  0.82779095     0.31000
H531        H  0.67348958  0.16640376  0.77718449     0.38600
H532        H  0.88716190  0.41005601  0.74771609     0.30500
H533        H  0.69432463  0.37391405  0.89901401     0.30500
H534        H  0.88827780  0.23610195  0.89201969     0.30800
Zr535      Zr  0.83414508  0.85286029  0.80373919     2.17500
O536        O  0.85715436  0.91373876  0.85865338    -0.51600
O537        O  0.91745481  0.85260517  0.78297715    -0.74800
O538        O  0.85164731  0.81798127  0.87965303    -0.81500
O539        O  0.79890494  0.94472524  0.71456251    -0.83300
O540        O  0.79666898  0.76782991  0.89846062    -0.78900
O541        O  0.83353210  0.93490520  0.78537650    -0.90500
O542        O  0.93693136  0.79412986  0.73257371    -0.76500
O543        O  0.85148153  0.77302321  0.79324052    -0.86000
O544        O  0.84609227  0.84216939  0.72293471    -0.85700
O545        O  0.76372976  0.81619883  0.82835341    -0.72400
O546        O  0.76152684  0.87702596  0.76726018    -0.84600
Zr547      Zr  0.72420673  0.74596139  0.69650680     2.26400
Zr548      Zr  0.78271826  0.73506261  0.81878444     2.06300
Zr549      Zr  0.77505424  0.86706091  0.68618913     2.10000
Zr550      Zr  0.86182518  0.76177741  0.71164764     1.78800
O551        O  0.71060127  0.91774561  0.66368243    -0.93400
O552        O  0.90985100  0.69785118  0.73861719    -0.41200
O553        O  0.79164538  0.78641122  0.67263541    -0.77800
O554        O  0.79517185  0.72180124  0.73654395    -0.96500
O555        O  0.71126918  0.75637685  0.77756490    -0.89800
O556        O  0.70655788  0.82588958  0.70709644    -0.92700
C557        C  0.94689227  0.83013702  0.75719257     1.01100
C558        C  0.82015474  0.96033836  0.75170918     1.14000
C559        C  0.82449364  0.80105786  0.90962659     1.04800
O560        O  0.85192061  0.69239705  0.84427076    -0.94800
O561        O  0.75913938  0.65644805  0.79628517    -0.90600
O562        O  0.72012251  0.66848088  0.72794773    -0.83700
C563        C  0.73380804  0.64254408  0.76128647     1.11400
O564        O  0.68364410  0.89124332  0.85228983    -0.96800
Zr565      Zr  0.69250494  0.83579613  0.78755632     1.88900
O566        O  0.63791982  0.75481476  0.69721074    -0.73400
O567        O  0.72990278  0.69826551  0.87072920    -0.52700
O568        O  0.64772670  0.80315658  0.84891351    -0.97400
O569        O  0.65090034  0.90477697  0.76301487    -0.54600
O570        O  0.61821081  0.80524940  0.75550716    -0.74000
C571        C  0.60728632  0.77711159  0.72165892     0.98400
O572        O  0.70606408  0.68704411  0.63661884    -0.62800
O573        O  0.82786367  0.89675656  0.62948727    -0.57600
O574        O  0.72396078  0.76963433  0.61506826    -0.94300
O575        O  0.75596533  0.84034886  0.60758799    -0.92700
O576        O  0.89885079  0.78330273  0.64055040    -0.93000
O577        O  0.86159755  0.69845876  0.65405552    -0.91800
C578        C  0.73613242  0.80396310  0.59087743     1.17200
H579        H  0.87105132  0.86064877  0.71193536     0.33200
H580        H  0.80241812  0.68985230  0.72953527     0.44000
H581        H  0.67979156  0.83481886  0.68826567     0.37600
H582        H  0.75694157  0.82632750  0.85966145     0.34000
H583        H  0.93880779  0.69901234  0.72053265     0.25800
H584        H  0.75053003  0.68523498  0.89513274     0.31800
H585        H  0.67117581  0.79644910  0.87362354     0.37700
H586        H  0.87251141  0.78978279  0.61873254     0.32100
H587        H  0.81190015  0.92468332  0.61800500     0.31000
H588        H  0.71999739  0.93011698  0.63380649     0.32700
H589        H  0.63481061  0.89563545  0.73339238     0.31700
H590        H  0.82892065  0.69734474  0.64187219     0.35700
H591        H  0.73119738  0.66346401  0.63919998     0.28400
H592        H  0.87664442  0.89927055  0.88302549     0.32600
H593        H  0.64945067  0.89543039  0.85577302     0.35500
H594        H  0.85530709  0.90853207  0.64759758     0.28100
H595        H  0.67743257  0.67189424  0.64688386     0.41000
H596        H  0.85738142  0.66922861  0.81892283     0.31000
H597        H  0.91984252  0.70722983  0.77063589     0.38600
H598        H  0.67579677  0.92585851  0.75406308     0.30500
H599        H  0.71289862  0.72388508  0.88664901     0.30500
H600        H  0.82718131  0.92223475  0.87319984     0.30800
C601        C  0.55638557  0.77122385  0.70868403     0.80000
N602        N  0.54287840  0.76957632  0.66264973    -0.78300
C603        C  0.49661423  0.76601843  0.65038822     0.82400
N604        N  0.46502374  0.76097269  0.68316915    -0.78200
C605        C  0.47698063  0.76068417  0.72837938     0.82500
N606        N  0.52289599  0.76708212  0.74194786    -0.80000
C607        C  0.27974636  0.49383426  0.70923018     0.80000
N608        N  0.28485739  0.53646987  0.73011439    -0.78300
C609        C  0.28663392  0.57392036  0.70279952     0.82400
N610        N  0.28190748  0.56845679  0.65616530    -0.78200
C611        C  0.27479669  0.52654958  0.63609261     0.82500
N612        N  0.27529005  0.48939106  0.66244825    -0.80000
C613        C  0.56127697  0.36790084  0.77151623     0.80000
N614        N  0.52276499  0.34332101  0.78377163    -0.78300
C615        C  0.47931465  0.36424057  0.78202747     0.82400
N616        N  0.47545646  0.40797411  0.76818041    -0.78200
C617        C  0.51293080  0.43156637  0.75612010     0.82500
N618        N  0.55546493  0.41126179  0.75674625    -0.80000
C619        C  0.70826337  0.51532989  0.74944583     0.80000
N620        N  0.66214546  0.51986246  0.73590273    -0.78300
C621        C  0.64081753  0.56201122  0.73701429     0.82400
N622        N  0.66564030  0.59929543  0.74886385    -0.78200
C623        C  0.71131338  0.59696546  0.76030998     0.82500
N624        N  0.73347416  0.55460591  0.76113349    -0.80000
C625        C  0.56372266  0.34620290  0.27721260     0.80000
N626        N  0.56751522  0.33775905  0.32252758    -0.78300
C627        C  0.53115384  0.33815761  0.35018719     0.82400
N628        N  0.48793402  0.34618955  0.33213589    -0.78200
C629        C  0.48080800  0.35081612  0.28549589     0.82500
N630        N  0.51951430  0.35191404  0.25705907    -0.80000
C631        C  0.78316050  0.53293315  0.31429284     0.80000
N632        N  0.77473795  0.53635903  0.36007717    -0.78300
C633        C  0.77867801  0.57655908  0.38402377     0.82400
N634        N  0.78989042  0.61459742  0.36205454    -0.78200
C635        C  0.79924228  0.61308371  0.31635271     0.82500
N636        N  0.79537125  0.57180883  0.29139643    -0.80000
C637        C  0.57643791  0.80019724  0.27488038     0.80000
N638        N  0.57237948  0.75378053  0.27102298    -0.78300
C639        C  0.53101601  0.73317398  0.27372130     0.82400
N640        N  0.49275031  0.75894224  0.28219919    -0.78200
C641        C  0.49451012  0.80547022  0.28607859     0.82500
N642        N  0.53694943  0.82714841  0.28229358    -0.80000
C643        C  0.30737115  0.52428514  0.27160053     0.80000
N644        N  0.35326573  0.51741660  0.26615644    -0.78300
C645        C  0.38319197  0.55183483  0.26426296     0.82400
N646        N  0.36713124  0.59591280  0.26846767    -0.78200
C647        C  0.32002199  0.60498630  0.27108010     0.82500
N648        N  0.28943173  0.56854740  0.27308606    -0.80000
C649        C  0.72590136  0.80644788  0.46091768     0.80000
N650        N  0.74665237  0.80765069  0.50445827    -0.78300
C651        C  0.71880589  0.80449560  0.54247720     0.82400
N652        N  0.67192352  0.80176042  0.53658315    -0.78200
C653        C  0.65181353  0.80272580  0.49405933     0.82500
N654        N  0.67872457  0.80354562  0.45651026    -0.80000
C655        C  0.77705345  0.38105607  0.47920371     0.80000
N656        N  0.76213140  0.42506572  0.48880270    -0.78300
C657        C  0.76106619  0.44190310  0.53322801     0.82400
N658        N  0.77192538  0.41453610  0.56795972    -0.78200
C659        C  0.78402491  0.37024753  0.56084798     0.82500
N660        N  0.78721056  0.35251346  0.51583965    -0.80000
C661        C  0.28390691  0.75411500  0.45611906     0.80000
N662        N  0.28518061  0.76738444  0.50225401    -0.78300
C663        C  0.28274646  0.73410892  0.53498238     0.82400
N664        N  0.27906503  0.68896141  0.52100240    -0.78200
C665        C  0.27543328  0.67707383  0.47517675     0.82500
N666        N  0.27856667  0.70949546  0.44380930    -0.80000
C667        C  0.28951007  0.32715554  0.47384642     0.80000
N668        N  0.26606240  0.32568139  0.51521355    -0.78300
C669        C  0.29237381  0.32141777  0.55580789     0.82400
N670        N  0.33985293  0.31897462  0.55374278    -0.78200
C671        C  0.36191681  0.31911494  0.51329788     0.82500
N672        N  0.33671920  0.32382867  0.47420310    -0.80000
O673        O  0.88419735  0.04610948  0.93405466    -0.86700
O674        O  0.10601988  0.92641286  0.00897450    -0.86900
O675        O  0.01812871  0.97753079  0.86853273    -0.88500
O676        O  0.97047570  0.91100778  0.99231250    -0.87300
O677        O  0.97522849  0.93746239  0.06823239    -0.86900
O678        O  0.07187185  0.03387083  0.85630753    -0.88300
O679        O  0.05012665  0.90673912  0.95333981    -0.86700
O680        O  0.91738401  0.97412513  0.92413669    -0.86300
Zr681      Zr  0.00011764  0.97387235  0.95049968     2.84300
O682        O  0.02913374  0.97738973  0.02710237    -1.08300
O683        O  0.99882595  0.04724457  0.92456016    -1.09000
C684        C  0.88206484  0.00221975  0.92889150     1.06400
C685        C  0.08505137  0.89775157  0.98052576     1.06300
C686        C  0.04455841  0.00116171  0.84279586     1.09300
C687        C  0.97547025  0.90519411  0.03599726     1.07100
H688        H  0.09725903  0.98512904  0.93439600     0.32700
O689        O  0.07642639  0.00402885  0.95310510    -1.29300
H690        H  0.92261261  0.00244412  0.00302511     0.32300
O691        O  0.95188118  0.01773290  0.99927234    -1.30900
O692        O  0.15987770  0.05472431  0.07130113    -0.86700
O693        O  0.93822074  0.17299782  0.98655828    -0.88200
O694        O  0.15743310  0.06173459  0.93341566    -0.86800
O695        O  0.02901811  0.99896066  0.14057108    -0.86800
O696        O  0.89737398  0.04027675  0.07459753    -0.86500
O697        O  0.02920908  0.10574454  0.86089393    -0.86300
O698        O  0.07348199  0.19465167  0.00016247    -0.86700
O699        O  0.03173136  0.13054145  0.12872419    -0.86200
O700        O  0.09348555  0.16149838  0.92967271    -0.87200
O701        O  0.98479434  0.06891853  0.14349931    -0.86400
O702        O  0.17381820  0.01120390  0.99125304    -0.86800
O703        O  0.95306192  0.10043265  0.88386188    -0.86500
O704        O  0.87844100  0.08684989  0.01375074    -0.86200
O705        O  0.10031574  0.98028568  0.10989908    -0.86600
O706        O  0.13431875  0.12864415  0.05995938    -0.86900
O707        O  0.99515726  0.19497248  0.04046901    -0.88200
Zr708      Zr  0.10229274  0.00799837  0.03098337     2.83100
Zr709      Zr  0.94687212  0.09107852  0.96798483     2.83500
Zr710      Zr  0.07339750  0.07963162  0.92694905     2.84100
Zr711      Zr  0.98110217  0.02199672  0.07424160     2.83400
Zr712      Zr  0.04912935  0.13052837  0.04567225     2.84200
O713        O  0.97515942  0.09636649  0.04491840    -1.08800
O714        O  0.09891315  0.08257434  0.00260135    -1.08300
C715        C  0.16664637  0.09751432  0.06533724     1.06400
C716        C  0.95897721  0.20251191  0.01428936     1.09000
C717        C  0.18527537  0.03643940  0.95811964     1.06500
C718        C  0.07332679  0.99069574  0.14404248     1.06900
C719        C  0.86873376  0.06459055  0.04974999     1.06500
C720        C  0.98505060  0.10220551  0.85288588     1.06000
C721        C  0.08312838  0.19638069  0.95680492     1.06500
C722        C  0.00889108  0.10434714  0.15555729     1.06000
H723        H  0.01294242  0.15201817  0.95408844     0.32700
O724        O  0.01950990  0.12373580  0.96929983    -1.29900
H725        H  0.06965532  0.06180474  0.10329065     0.32700
O726        O  0.05424113  0.05709125  0.07362857    -1.31300
O727        O  0.44271889  0.69772943  0.50476511    -0.86700
O728        O  0.52321523  0.47993828  0.61632090    -0.86900
O729        O  0.37981486  0.55603882  0.56616856    -0.88500
O730        O  0.50638160  0.60368136  0.63914393    -0.87300
O731        O  0.58108583  0.61369818  0.61381628    -0.86900
O732        O  0.36616831  0.50832352  0.50191720    -0.88300
O733        O  0.46619849  0.53343222  0.63545903    -0.86700
O734        O  0.43380293  0.66295516  0.57392029    -0.86300
Zr735      Zr  0.46029829  0.58206355  0.57024628     2.84300
O736        O  0.53706739  0.55478820  0.56832095    -1.08300
O737        O  0.43128941  0.58393299  0.49513191    -1.09000
C738        C  0.43872977  0.69863647  0.54899086     1.06400
C739        C  0.49524983  0.50087953  0.64479066     1.06300
C740        C  0.35406300  0.52932270  0.53981144     1.09300
C741        C  0.55101550  0.60644356  0.64542419     1.07100
H742        H  0.44486365  0.48754244  0.55143445     0.32700
O743        O  0.46355376  0.50826236  0.53437070    -1.29300
H744        H  0.51257642  0.65991049  0.54939073     0.32300
O745        O  0.50792408  0.63152127  0.53193498    -1.30900
O746        O  0.57778107  0.42385462  0.48716827    -0.86700
O747        O  0.49469129  0.64752496  0.37670190    -0.88200
O748        O  0.43715842  0.42927679  0.47312789    -0.86800
O749        O  0.64838673  0.56179839  0.56063128    -0.86800
O750        O  0.58332343  0.68634103  0.51454477    -0.86500
O751        O  0.36965715  0.55125447  0.42619014    -0.86300
O752        O  0.51843567  0.50657168  0.34812334    -0.86700
O753        O  0.64015570  0.55795281  0.42151709    -0.86200
O754        O  0.44349586  0.49468933  0.37234683    -0.87200
O755        O  0.65327102  0.60496601  0.48640662    -0.86400
O756        O  0.49482638  0.41414041  0.52768841    -0.86800
O757        O  0.39100386  0.62660161  0.43930648    -0.86500
O758        O  0.52115698  0.70491362  0.46615344    -0.86200
O759        O  0.62294606  0.48718417  0.56349697    -0.86600
O760        O  0.57123647  0.45360469  0.41460860    -0.86900
O761        O  0.55004299  0.59312564  0.35490280    -0.88200
Zr762      Zr  0.54155729  0.48261693  0.53442059     2.83100
Zr763      Zr  0.47527721  0.63640936  0.45675534     2.83500
Zr764      Zr  0.43622469  0.51118325  0.45693478     2.84100
Zr765      Zr  0.58324693  0.60423848  0.52930987     2.83400
Zr766      Zr  0.55702592  0.53771961  0.41645975     2.84200
O767        O  0.55331124  0.61036271  0.45367107    -1.08800
O768        O  0.51288964  0.48717591  0.45789691    -1.08300
C769        C  0.57450505  0.41992265  0.44290946     1.06400
C770        C  0.52381233  0.62882840  0.34799834     1.09000
C771        C  0.45941719  0.40296236  0.50159223     1.06500
C772        C  0.65483107  0.51851442  0.56540561     1.06900
C773        C  0.55842896  0.71441499  0.49009973     1.06500
C774        C  0.36061108  0.59429356  0.43152559     1.06000
C775        C  0.47443107  0.50106725  0.34091898     1.06500
C776        C  0.66628588  0.58246493  0.44997184     1.06000
H777        H  0.46537746  0.57127872  0.38920336     0.32700
O778        O  0.47947637  0.56537856  0.41902630    -1.29900
H779        H  0.61659837  0.51837052  0.48782462     0.32700
O780        O  0.58586647  0.53167376  0.49134025    -1.31300
C781        C  0.40975619  0.33146317  0.51252427    -0.13500
C782        C  0.43992884  0.35886248  0.50743425    -0.15100
C783        C  0.31324426  0.60717492  0.43902370    -0.13500
C784        C  0.28520559  0.63173754  0.45808549    -0.15100
C785        C  0.70171396  0.50272114  0.56157902    -0.13500
C786        C  0.73430568  0.48144918  0.54613895    -0.15100
C787        C  0.60494599  0.78841907  0.48869244    -0.13500
C788        C  0.57574892  0.75954779  0.48804960    -0.15100
C789        C  0.43040166  0.53835136  0.27355007    -0.13500
C790        C  0.45659634  0.51596104  0.29726897    -0.15100
C791        C  0.53009596  0.68538725  0.28245398    -0.13500
C792        C  0.52855860  0.65247923  0.30612195    -0.15100
C793        C  0.75180981  0.58197511  0.42389254    -0.13500
C794        C  0.71448866  0.58384181  0.44115725    -0.15100
C795        C  0.54305086  0.34941156  0.39714926    -0.13500
C796        C  0.56257237  0.37572886  0.42385049    -0.15100
C797        C  0.59678464  0.57144528  0.71462786    -0.13500
C798        C  0.57037742  0.59062750  0.68823370    -0.15100
C799        C  0.49822639  0.48757699  0.69134966    -0.13500
C800        C  0.50503276  0.46873735  0.72689552    -0.15100
C801        C  0.30885776  0.52132070  0.55663650    -0.13500
C802        C  0.28240105  0.52061348  0.58794766    -0.15100
C803        C  0.47914262  0.75846447  0.60374255    -0.13500
C804        C  0.45559793  0.73881951  0.57403754    -0.15100
C805        C  0.21253749  0.10989980  0.05333807    -0.13500
C806        C  0.24397122  0.12863325  0.03516139    -0.15100
C807        C  0.12778896  0.02591770  0.20763983    -0.13500
C808        C  0.09708626  0.00598699  0.18596823    -0.15100
C809        C  0.01688207  0.13158770  0.24113532    -0.13500
C810        C  0.01236877  0.11395127  0.20361440    -0.15100
C811        C  0.78996194  0.06921443  0.08985856    -0.13500
C812        C  0.82206849  0.06787631  0.06440230    -0.15100
C813        C  0.01543868  0.83373413  0.07093277    -0.13500
C814        C  0.99337740  0.86162947  0.04948866    -0.15100
C815        C  0.26524502  0.03480435  0.92111060    -0.13500
C816        C  0.23287961  0.03516632  0.94621241    -0.15100
C817        C  0.03668262  0.96619577  0.76067347    -0.13500
C818        C  0.04251315  0.98974366  0.79482431    -0.15100
C819        C  0.06948831  0.23721149  0.93323218    -0.13500
C820        C  0.05132050  0.25732591  0.90143957    -0.15100
C821        C  0.94569364  0.07047126  0.77812078    -0.13500
C822        C  0.97045564  0.08954132  0.80673373    -0.15100
C823        C  0.13515650  0.82481560  0.98205673    -0.13500
C824        C  0.10426453  0.85257863  0.97877434    -0.15100
C825        C  0.90787951  0.27556745  0.01623433    -0.13500
C826        C  0.93830021  0.24706743  0.01675596    -0.15100
C827        C  0.81944829  0.95354209  0.96416966    -0.13500
C828        C  0.83998010  0.98171870  0.94320393    -0.15100
loop_ 
_geom_bond_atom_site_label_1 
_geom_bond_atom_site_label_2 
_geom_bond_distance 
_geom_bond_site_symmetry_2 
_ccdc_geom_bond_type 
C1            N2   1.366       .  A
C1            N6   1.391   1_554  A
C1          C301   1.506       .  S
N2            C3   1.357   1_554  A
C3            N4   1.336       .  A
C3          C827   1.426       .  S
N4            C5   1.340       .  A
C5            N6   1.380       .  A
C5          C559   1.496       .  S
C7            N8   1.354       .  A
C7           N12   1.387       .  A
C7          C222   1.491       .  S
N8            C9   1.335       .  A
C9           N10   1.337   1_554  A
C9          C825   1.415       .  S
N10          C11   1.355       .  A
C11          N12   1.386   1_556  A
C11         C493   1.493       .  S
C13          N14   1.378   1_554  A
C13          N18   1.355       .  A
C13         C169   1.466       .  S
N14          C15   1.372       .  A
C15          N16   1.354       .  A
C15         C427   1.476       .  S
N16          C17   1.336       .  A
C17          N18   1.341   1_556  A
C17         C823   1.414       .  S
C19          N20   1.338       .  A
C19          N24   1.380       .  A
C19         C491   1.480       .  S
N20          C21   1.331       .  A
C21          N22   1.356       .  A
C21         C821   1.417       .  S
N22          C23   1.367       .  A
C23          N24   1.386       .  A
C23         C558   1.497   1_545  S
C25          N26   1.392   1_655  A
C25          N30   1.373       .  A
C25         C492   1.522       .  S
N26          C27   1.387       .  A
C27          N28   1.343       .  A
C27         C361   1.496       .  S
N28          C29   1.332       .  A
C29          N30   1.356   1_455  A
C29         C820   1.437       .  S
C31          N32   1.353       .  A
C31          N36   1.373   1_655  A
C31         C557   1.472       .  S
N32          C33   1.347   1_655  A
C33          N34   1.340       .  A
C33         C817   1.405       .  S
N34          C35   1.348       .  A
C35          N36   1.371       .  A
C35         C426   1.460       .  S
C37          N38   1.350       .  A
C37          N42   1.368       .  A
C37         C359   1.456       .  S
N38          C39   1.342       .  A
C39          N40   1.343   1_545  A
C39         C815   1.404       .  S
N40          C41   1.352       .  A
C41          N42   1.367   1_565  A
C41         C425   1.459       .  S
C43          N44   1.337       .  A
C43          N48   1.380   1_655  A
C43         C293   1.477       .  S
N44          C45   1.330   1_655  A
C45          N46   1.358       .  A
C45         C813   1.419       .  S
N46          C47   1.369       .  A
C47          N48   1.385       .  A
C47         C176   1.503       .  S
C49          N50   1.379       .  A
C49          N54   1.352       .  A
C49         C221   1.481       .  S
N50          C51   1.380       .  A
C51          N52   1.348       .  A
C51         C308   1.475   1_545  S
N52          C53   1.341       .  A
C53          N54   1.341       .  A
C53         C811   1.405       .  S
C55          N56   1.346       .  A
C55          N60   1.380   1_655  A
C55         C223   1.479       .  S
N56          C57   1.341   1_655  A
C57          N58   1.344       .  A
C57         C809   1.396       .  S
N58          C59   1.349       .  A
C59          N60   1.381       .  A
C59         C104   1.483       .  S
Zr61         O62   2.438       .  S
Zr61         O63   2.475       .  S
Zr61         O64   2.476       .  S
Zr61         O67   2.450       .  S
Zr61         O69   2.368       .  S
Zr61         O70   2.381       .  S
Zr61         O71   2.423       .  S
Zr61         O72   2.404       .  S
O62         H118   0.989       .  S
O62         H126   0.990       .  S
O63          C83   1.295       .  A
O64          C85   1.295       .  A
O65         Zr75   2.459       .  S
O65          C84   1.283       .  A
O66         Zr74   2.508       .  S
O66          C85   1.294       .  A
O67          C84   1.292       .  A
O68         Zr76   2.412       .  S
O68          C83   1.273       .  A
O69         Zr74   2.401       .  S
O69         Zr76   2.402       .  S
O70         Zr75   2.407       .  S
O70         Zr76   2.394       .  S
O70         H105   0.966       .  S
O71         Zr74   2.395       .  S
O71         Zr91   2.397       .  S
O71         H108   0.962       .  S
O72         Zr75   2.383       .  S
O72         Zr91   2.405       .  S
Zr73         O98   2.437       .  S
Zr73         O92   2.477       .  S
Zr73        O100   2.493       .  S
Zr73         O88   2.488       .  S
Zr73         O79   2.406       .  S
Zr73         O80   2.415       .  S
Zr73         O81   2.385       .  S
Zr73         O82   2.379       .  S
Zr74         O93   2.436       .  S
Zr74         O86   2.436       .  S
Zr74         O87   2.447       .  S
Zr74         O80   2.432       .  S
Zr74         O81   2.427       .  S
Zr75         O77   2.437       .  S
Zr75         O99   2.437       .  S
Zr75        O101   2.423       .  S
Zr75         O79   2.403       .  S
Zr75         O82   2.414       .  S
Zr76        O102   2.435       .  S
Zr76        O103   2.435       .  S
Zr76         O78   2.437       .  S
Zr76         O79   2.388       .  S
Zr76         O80   2.394       .  S
O77         H114   0.990       .  S
O78         H109   0.990       .  S
O78         H123   0.990       .  S
O80         H106   0.965       .  S
O81         Zr91   2.376       .  S
O82         Zr91   2.374       .  S
O82         H107   0.966       .  S
C83         C643   1.476       .  S
C84         C667   1.487       .  S
C85         C629   1.512       .  S
O86         H122   0.990       .  S
O87          C89   1.283       .  A
O88          C89   1.300       .  A
C89         C331   1.488       .  S
O90         Zr91   2.442       .  S
O90         H119   0.990       .  S
Zr91         O94   2.438       .  S
Zr91         O95   2.440       .  S
Zr91         O96   2.462       .  S
O92          C97   1.293       .  A
O93         H110   0.990       .  S
O93         H125   0.990       .  S
O94         H111   0.990       .  S
O95         H115   0.989       .  S
O95         H124   0.990       .  S
O96          C97   1.287       .  A
C97         C127   1.505       .  S
O98         H117   0.990       .  S
O98         H121   0.990       .  S
O99         H113   0.990       .  S
O99         H120   0.990       .  S
O100        C104   1.300       .  A
O101        C104   1.280       .  A
O102        H112   0.990       .  S
O103        H116   0.990       .  S
C127        N128   1.370       .  A
C127        N132   1.387       .  A
N128        C129   1.358       .  A
C129        N130   1.335       .  A
C129        C807   1.435       .  S
N130        C131   1.343       .  A
C131        N132   1.379       .  A
C131        C161   1.489   1_545  S
Zr133       O134   2.442       .  S
Zr133       O135   2.449       .  S
Zr133       O136   2.479       .  S
Zr133       O139   2.466       .  S
Zr133       O141   2.379       .  S
Zr133       O142   2.390       .  S
Zr133       O143   2.404       .  S
Zr133       O144   2.403       .  S
O134        H190   0.990       .  S
O134        H198   0.989       .  S
O135        C155   1.288       .  A
O136        C157   1.291       .  A
O137       Zr147   2.494       .  S
O137        C156   1.295       .  A
O138       Zr146   2.469       .  S
O138        C157   1.287       .  A
O139        C156   1.293       .  A
O140       Zr148   2.433       .  S
O140        C155   1.279       .  A
O141       Zr146   2.421       .  S
O141       Zr148   2.392       .  S
O142       Zr147   2.399       .  S
O142       Zr148   2.387       .  S
O142        H177   0.965       .  S
O143       Zr146   2.426       .  S
O143       Zr163   2.372       .  S
O143        H180   0.962       .  S
O144       Zr147   2.396       .  S
O144       Zr163   2.393       .  S
Zr145       O170   2.433       .  S
Zr145       O164   2.448       .  S
Zr145       O172   2.454       .  S
Zr145       O160   2.476       .  S
Zr145       O151   2.407       .  S
Zr145       O152   2.402       .  S
Zr145       O153   2.375       .  S
Zr145       O154   2.377       .  S
Zr146       O165   2.436       .  S
Zr146       O158   2.435       .  S
Zr146       O159   2.468       .  S
Zr146       O152   2.428       .  S
Zr146       O153   2.419       .  S
Zr147       O149   2.435       .  S
Zr147       O171   2.436       .  S
Zr147       O173   2.495       .  S
Zr147       O151   2.401       .  S
Zr147       O154   2.399       .  S
Zr148       O174   2.435       .  S
Zr148       O175   2.437       .  S
Zr148       O150   2.438       .  S
Zr148       O151   2.403       .  S
Zr148       O152   2.383       .  S
O149        H186   0.990       .  S
O150        H181   0.990       .  S
O150        H195   0.990       .  S
O152        H178   0.963       .  S
O153       Zr163   2.387       .  S
O154       Zr163   2.382       .  S
O154        H179   0.966       .  S
C155        C661   1.471       .  S
C156        C647   1.507       .  S
C157        C641   1.486       .  S
O158        H194   0.990       .  S
O159        C161   1.286       .  A
O160        C161   1.292       .  A
O162       Zr163   2.439       .  S
O162        H191   0.990       .  S
Zr163       O166   2.437       .  S
Zr163       O167   2.441       .  S
Zr163       O168   2.412       .  S
O164        C169   1.288       .  A
O165        H182   0.990       .  S
O165        H197   0.990       .  S
O166        H183   0.990       .  S
O167        H187   0.990       .  S
O167        H196   0.990       .  S
O168        C169   1.275       .  A
O170        H189   0.989       .  S
O170        H193   0.989       .  S
O171        H185   0.990       .  S
O171        H192   0.990       .  S
O172        C176   1.290       .  A
O173        C176   1.296       .  A
O174        H184   0.990       .  S
O175        H188   0.990       .  S
Zr199       O200   2.442       .  S
Zr199       O201   2.445       .  S
Zr199       O202   2.477       .  S
Zr199       O205   2.449       .  S
Zr199       O207   2.377       .  S
Zr199       O208   2.384       .  S
Zr199       O209   2.403       .  S
Zr199       O210   2.395       .  S
O200        H256   0.990       .  S
O200        H264   0.991       .  S
O201        C221   1.288       .  A
O202        C223   1.294       .  A
O203       Zr213   2.472       .  S
O203        C222   1.286       .  A
O204       Zr212   2.444       .  S
O204        C223   1.283       .  A
O205        C222   1.292       .  A
O206       Zr214   2.446       .  S
O206        C221   1.281       .  A
O207       Zr212   2.414       .  S
O207       Zr214   2.381       .  S
O208       Zr213   2.418       .  S
O208       Zr214   2.387       .  S
O208        H243   0.965       .  S
O209       Zr212   2.415       .  S
O209       Zr229   2.389       .  S
O209        H246   0.964       .  S
O210       Zr213   2.396       .  S
O210       Zr229   2.379       .  S
Zr211       O236   2.437       .  S
Zr211       O230   2.487       .  S
Zr211       O238   2.477       .  S
Zr211       O226   2.501       .  S
Zr211       O217   2.405       .  S
Zr211       O218   2.418       .  S
Zr211       O219   2.366       .  S
Zr211       O220   2.388       .  S
Zr212       O231   2.435       .  S
Zr212       O224   2.435       .  S
Zr212       O225   2.473       .  S
Zr212       O218   2.404       .  S
Zr212       O219   2.400       .  S
Zr213       O215   2.436       .  S
Zr213       O237   2.441       .  S
Zr213       O239   2.457       .  S
Zr213       O217   2.402       .  S
Zr213       O220   2.427       .  S
Zr214       O240   2.437       .  S
Zr214       O241   2.435       .  S
Zr214       O216   2.437       .  S
Zr214       O217   2.398       .  S
Zr214       O218   2.408       .  S
O215        H252   0.990       .  S
O216        H247   0.990       .  S
O216        H261   0.990       .  S
O218        H244   0.964       .  S
O219       Zr229   2.393       .  S
O220       Zr229   2.397       .  S
O220        H245   0.966       .  S
O224        H260   0.990       .  S
O225        C227   1.290       .  A
O226        C227   1.298       .  A
C227        C655   1.510       .  S
O228       Zr229   2.438       .  S
O228        H257   0.990       .  S
Zr229       O232   2.439       .  S
Zr229       O233   2.438       .  S
Zr229       O234   2.407       .  S
O230        C235   1.298       .  A
O231        H248   0.990       .  S
O231        H263   0.990       .  S
O232        H249   0.990       .  S
O233        H253   0.990       .  S
O233        H262   0.990       .  S
O234        C235   1.273       .  A
C235        C631   1.485       .  S
O236        H255   0.990       .  S
O236        H259   0.990       .  S
O237        H251   0.990       .  S
O237        H258   0.990       .  S
O238        C242   1.300       .  A
O239        C242   1.282       .  A
O240        H250   0.990       .  S
O241        H254   0.990       .  S
C242        C625   1.496       .  S
Zr265       O266   2.444       .  S
Zr265       O267   2.443       .  S
Zr265       O268   2.445       .  S
Zr265       O271   2.418       .  S
Zr265       O273   2.372       .  S
Zr265       O274   2.378       .  S
Zr265       O275   2.406       .  S
Zr265       O276   2.396       .  S
O266        H322   0.991       .  S
O266        H330   0.991       .  S
O267        C287   1.287       .  A
O268        C289   1.286       .  A
O269       Zr279   2.475       .  S
O269        C288   1.287       .  A
O270       Zr278   2.467       .  S
O270        C289   1.286       .  A
O271        C288   1.285       .  A
O272       Zr280   2.446       .  S
O272        C287   1.282       .  A
O273       Zr278   2.404       .  S
O273       Zr280   2.387       .  S
O274       Zr279   2.392       .  S
O274       Zr280   2.382       .  S
O274        H309   0.965       .  S
O275       Zr278   2.402       .  S
O275       Zr295   2.398       .  S
O275        H312   0.965       .  S
O276       Zr279   2.394       .  S
O276       Zr295   2.397       .  S
Zr277       O302   2.440       .  S
Zr277       O296   2.517       .  S
Zr277       O304   2.479       .  S
Zr277       O292   2.479       .  S
Zr277       O283   2.409       .  S
Zr277       O284   2.424       .  S
Zr277       O285   2.377       .  S
Zr277       O286   2.379       .  S
Zr278       O297   2.436       .  S
Zr278       O290   2.434       .  S
Zr278       O291   2.433       .  S
Zr278       O284   2.417       .  S
Zr278       O285   2.415       .  S
Zr279       O281   2.436       .  S
Zr279       O303   2.440       .  S
Zr279       O305   2.426       .  S
Zr279       O283   2.404       .  S
Zr279       O286   2.413       .  S
Zr280       O306   2.436       .  S
Zr280       O307   2.436       .  S
Zr280       O282   2.437       .  S
Zr280       O283   2.400       .  S
Zr280       O284   2.409       .  S
O281        H318   0.990       .  S
O282        H313   0.990       .  S
O282        H327   0.990       .  S
O284        H310   0.965       .  S
O285       Zr295   2.380       .  S
O286       Zr295   2.385       .  S
O286        H311   0.965       .  S
C287        C649   1.479       .  S
C288        C637   1.488       .  S
C289        C635   1.481       .  S
O290        H326   0.990       .  S
O291        C293   1.280       .  A
O292        C293   1.297       .  A
O294       Zr295   2.437       .  S
O294        H323   0.990       .  S
Zr295       O298   2.435       .  S
Zr295       O299   2.442       .  S
Zr295       O300   2.427       .  S
O296        C301   1.302       .  A
O297        H314   0.990       .  S
O297        H329   0.990       .  S
O298        H315   0.990       .  S
O299        H319   0.990       .  S
O299        H328   0.990       .  S
O300        C301   1.279       .  A
O302        H321   0.990       .  S
O302        H325   0.990       .  S
O303        H317   0.990       .  S
O303        H324   0.990       .  S
O304        C308   1.296       .  A
O305        C308   1.280       .  A
O306        H316   0.990       .  S
O307        H320   0.990       .  S
C331        N332   1.337       .  A
C331        N336   1.384       .  A
N332        C333   1.331       .  A
C333        N334   1.356   1_554  A
C333        C806   1.413       .  S
N334        C335   1.365       .  A
C335        N336   1.390   1_556  A
C335        C360   1.507       .  S
Zr337       O338   2.431       .  S
Zr337       O339   2.447       .  S
Zr337       O340   2.500       .  S
Zr337       O343   2.492       .  S
Zr337       O345   2.387       .  S
Zr337       O346   2.380       .  S
Zr337       O347   2.407       .  S
Zr337       O348   2.405       .  S
O338        H394   0.989       .  S
O338        H402   0.989       .  S
O339        C359   1.288       .  A
O340        C361   1.298       .  A
O341       Zr351   2.463       .  S
O341        C360   1.288       .  A
O342       Zr350   2.470       .  S
O342        C361   1.286       .  A
O343        C360   1.298       .  A
O344       Zr352   2.393       .  S
O344        C359   1.271       .  A
O345       Zr350   2.422       .  S
O345       Zr352   2.392       .  S
O346       Zr351   2.398       .  S
O346       Zr352   2.382       .  S
O346        H381   0.966       .  S
O347       Zr350   2.436       .  S
O347       Zr367   2.375       .  S
O347        H384   0.962       .  S
O348       Zr351   2.398       .  S
O348       Zr367   2.402       .  S
Zr349       O374   2.441       .  S
Zr349       O368   2.415       .  S
Zr349       O376   2.429       .  S
Zr349       O364   2.432       .  S
Zr349       O355   2.390       .  S
Zr349       O356   2.400       .  S
Zr349       O357   2.372       .  S
Zr349       O358   2.379       .  S
Zr350       O369   2.439       .  S
Zr350       O362   2.434       .  S
Zr350       O363   2.499       .  S
Zr350       O356   2.415       .  S
Zr350       O357   2.410       .  S
Zr351       O353   2.433       .  S
Zr351       O375   2.437       .  S
Zr351       O377   2.456       .  S
Zr351       O355   2.404       .  S
Zr351       O358   2.405       .  S
Zr352       O378   2.435       .  S
Zr352       O379   2.437       .  S
Zr352       O354   2.439       .  S
Zr352       O355   2.393       .  S
Zr352       O356   2.365       .  S
O353        H390   0.990       .  S
O354        H385   0.990       .  S
O354        H399   0.990       .  S
O356        H382   0.963       .  S
O357       Zr367   2.388       .  S
O358       Zr367   2.377       .  S
O358        H383   0.966       .  S
O362        H398   0.990       .  S
O363        C365   1.293       .  A
O364        C365   1.287       .  A
C365        C669   1.494       .  S
O366       Zr367   2.436       .  S
O366        H395   0.990       .  S
Zr367       O370   2.437       .  S
Zr367       O371   2.436       .  S
Zr367       O372   2.430       .  S
O368        C373   1.281       .  A
O369        H386   0.990       .  S
O369        H401   0.990       .  S
O370        H387   0.990       .  S
O371        H391   0.990       .  S
O371        H400   0.990       .  S
O372        C373   1.279       .  A
C373        C607   1.461       .  S
O374        H393   0.990       .  S
O374        H397   0.990       .  S
O375        H389   0.990       .  S
O375        H396   0.990       .  S
O376        C380   1.286       .  A
O377        C380   1.285       .  A
O378        H388   0.990       .  S
O379        H392   0.990       .  S
C380        C615   1.477       .  S
Zr403       O404   2.441       .  S
Zr403       O405   2.424       .  S
Zr403       O406   2.427       .  S
Zr403       O409   2.435       .  S
Zr403       O411   2.368       .  S
Zr403       O412   2.372       .  S
Zr403       O413   2.402       .  S
Zr403       O414   2.393       .  S
O404        H460   0.990       .  S
O404        H468   0.990       .  S
O405        C425   1.282       .  A
O406        C427   1.286       .  A
O407       Zr417   2.428       .  S
O407        C426   1.281       .  A
O408       Zr416   2.476       .  S
O408        C427   1.289       .  A
O409        C426   1.286       .  A
O410       Zr418   2.417       .  S
O410        C425   1.276       .  A
O411       Zr416   2.409       .  S
O411       Zr418   2.391       .  S
O412       Zr417   2.402       .  S
O412       Zr418   2.372       .  S
O412        H447   0.966       .  S
O413       Zr416   2.417       .  S
O413       Zr433   2.364       .  S
O413        H450   0.962       .  S
O414       Zr417   2.391       .  S
O414       Zr433   2.390       .  S
Zr415       O440   2.417       .  S
Zr415       O434   2.456       .  S
Zr415       O442   2.492       .  S
Zr415       O430   2.495       .  S
Zr415       O421   2.408       .  S
Zr415       O422   2.415       .  S
Zr415       O423   2.381       .  S
Zr415       O424   2.383       .  S
Zr416       O435   2.434       .  S
Zr416       O428   2.435       .  S
Zr416       O429   2.445       .  S
Zr416       O422   2.446       .  S
Zr416       O423   2.420       .  S
Zr417       O419   2.437       .  S
Zr417       O441   2.436       .  S
Zr417       O443   2.432       .  S
Zr417       O421   2.396       .  S
Zr417       O424   2.389       .  S
Zr418       O444   2.436       .  S
Zr418       O445   2.437       .  S
Zr418       O420   2.438       .  S
Zr418       O421   2.393       .  S
Zr418       O422   2.380       .  S
O419        H456   0.990       .  S
O420        H451   0.990       .  S
O420        H465   0.990       .  S
O422        H448   0.962       .  S
O423       Zr433   2.386       .  S
O424       Zr433   2.379       .  S
O424        H449   0.965       .  S
O428        H464   0.990       .  S
O429        C431   1.278       .  A
O430        C431   1.289       .  A
C431        C605   1.477       .  S
O432       Zr433   2.435       .  S
O432        H461   0.990       .  S
Zr433       O436   2.435       .  S
Zr433       O437   2.439       .  S
Zr433       O438   2.397       .  S
O434        C439   1.288       .  A
O435        H452   0.990       .  S
O435        H467   0.990       .  S
O436        H453   0.990       .  S
O437        H457   0.990       .  S
O437        H466   0.989       .  S
O438        C439   1.272       .  A
C439        C609   1.461       .  S
O440        H459   0.990       .  S
O440        H463   0.990       .  S
O441        H455   0.990       .  S
O441        H462   0.990       .  S
O442        C446   1.297       .  A
O443        C446   1.283       .  A
O444        H454   0.990       .  S
O445        H458   0.990       .  S
C446        C663   1.483       .  S
Zr469       O470   2.444       .  S
Zr469       O471   2.480       .  S
Zr469       O472   2.453       .  S
Zr469       O475   2.448       .  S
Zr469       O477   2.374       .  S
Zr469       O478   2.378       .  S
Zr469       O479   2.424       .  S
Zr469       O480   2.421       .  S
O470        H526   0.990       .  S
O470        H534   0.991       .  S
O471        C491   1.296       .  A
O472        C493   1.291       .  A
O473       Zr483   2.525       .  S
O473        C492   1.299       .  A
O474       Zr482   2.475       .  S
O474        C493   1.286       .  A
O475        C492   1.288       .  A
O476       Zr484   2.411       .  S
O476        C491   1.272       .  A
O477       Zr482   2.409       .  S
O477       Zr484   2.402       .  S
O478       Zr483   2.398       .  S
O478       Zr484   2.400       .  S
O478        H513   0.966       .  S
O479       Zr482   2.403       .  S
O479       Zr499   2.403       .  S
O479        H516   0.962       .  S
O480       Zr483   2.383       .  S
O480       Zr499   2.419       .  S
Zr481       O506   2.438       .  S
Zr481       O500   2.479       .  S
Zr481       O508   2.465       .  S
Zr481       O496   2.476       .  S
Zr481       O487   2.409       .  S
Zr481       O488   2.409       .  S
Zr481       O489   2.374       .  S
Zr481       O490   2.393       .  S
Zr482       O501   2.437       .  S
Zr482       O494   2.434       .  S
Zr482       O495   2.434       .  S
Zr482       O488   2.420       .  S
Zr482       O489   2.412       .  S
Zr483       O485   2.436       .  S
Zr483       O507   2.437       .  S
Zr483       O509   2.458       .  S
Zr483       O487   2.422       .  S
Zr483       O490   2.429       .  S
Zr484       O510   2.435       .  S
Zr484       O511   2.436       .  S
Zr484       O486   2.436       .  S
Zr484       O487   2.393       .  S
Zr484       O488   2.386       .  S
O485        H522   0.990       .  S
O486        H517   0.990       .  S
O486        H531   0.990       .  S
O488        H514   0.965       .  S
O489       Zr499   2.374       .  S
O490       Zr499   2.368       .  S
O490        H515   0.966       .  S
O494        H530   0.990       .  S
O495        C497   1.282       .  A
O496        C497   1.296       .  A
C497        C613   1.478       .  S
O498       Zr499   2.438       .  S
O498        H527   0.990       .  S
Zr499       O502   2.437       .  S
Zr499       O503   2.440       .  S
Zr499       O504   2.470       .  S
O500        C505   1.293       .  A
O501        H518   0.990       .  S
O501        H533   0.990       .  S
O502        H519   0.990       .  S
O503        H523   0.990       .  S
O503        H532   0.989       .  S
O504        C505   1.288       .  A
C505        C619   1.513       .  S
O506        H525   0.990       .  S
O506        H529   0.990       .  S
O507        H521   0.990       .  S
O507        H528   0.990       .  S
O508        C512   1.296       .  A
O509        C512   1.286       .  A
O510        H520   0.990       .  S
O511        H524   0.990       .  S
C512        C659   1.486       .  S
Zr535       O536   2.419       .  S
Zr535       O537   2.469       .  S
Zr535       O538   2.484       .  S
Zr535       O541   2.462       .  S
Zr535       O543   2.378       .  S
Zr535       O544   2.372       .  S
Zr535       O545   2.422       .  S
Zr535       O546   2.412       .  S
O536        H592   0.989       .  S
O536        H600   0.988       .  S
O537        C557   1.292       .  A
O538        C559   1.290       .  A
O539       Zr549   2.473       .  S
O539        C558   1.290       .  A
O540       Zr548   2.481       .  S
O540        C559   1.286       .  A
O541        C558   1.290       .  A
O542       Zr550   2.409       .  S
O542        C557   1.275       .  A
O543       Zr548   2.410       .  S
O543       Zr550   2.389       .  S
O544       Zr549   2.384       .  S
O544       Zr550   2.387       .  S
O544        H579   0.965       .  S
O545       Zr548   2.422       .  S
O545       Zr565   2.399       .  S
O545        H582   0.963       .  S
O546       Zr549   2.386       .  S
O546       Zr565   2.416       .  S
Zr547       O572   2.440       .  S
Zr547       O566   2.477       .  S
Zr547       O574   2.471       .  S
Zr547       O562   2.464       .  S
Zr547       O553   2.398       .  S
Zr547       O554   2.419       .  S
Zr547       O555   2.384       .  S
Zr547       O556   2.383       .  S
Zr548       O567   2.436       .  S
Zr548       O560   2.434       .  S
Zr548       O561   2.452       .  S
Zr548       O554   2.423       .  S
Zr548       O555   2.423       .  S
Zr549       O551   2.435       .  S
Zr549       O573   2.440       .  S
Zr549       O575   2.422       .  S
Zr549       O553   2.407       .  S
Zr549       O556   2.408       .  S
Zr550       O576   2.435       .  S
Zr550       O577   2.435       .  S
Zr550       O552   2.436       .  S
Zr550       O553   2.391       .  S
Zr550       O554   2.383       .  S
O551        H588   0.990       .  S
O552        H583   0.990       .  S
O552        H597   0.990       .  S
O554        H580   0.965       .  S
O555       Zr565   2.373       .  S
O556       Zr565   2.371       .  S
O556        H581   0.966       .  S
O560        H596   0.990       .  S
O561        C563   1.284       .  A
O562        C563   1.294       .  A
C563        C623   1.479       .  S
O564       Zr565   2.438       .  S
O564        H593   0.990       .  S
Zr565       O568   2.435       .  S
Zr565       O569   2.438       .  S
Zr565       O570   2.459       .  S
O566        C571   1.291       .  A
O567        H584   0.990       .  S
O567        H599   0.989       .  S
O568        H585   0.989       .  S
O569        H589   0.990       .  S
O569        H598   0.990       .  S
O570        C571   1.286       .  A
C571        C601   1.504       .  S
O572        H591   0.990       .  S
O572        H595   0.991       .  S
O573        H587   0.990       .  S
O573        H594   0.990       .  S
O574        C578   1.294       .  A
O575        C578   1.280       .  A
O576        H586   0.990       .  S
O577        H590   0.990       .  S
C578        C651   1.471       .  S
C601        N602   1.373       .  A
C601        N606   1.381       .  A
N602        C603   1.365       .  A
C603        N604   1.336       .  A
C603        C803   1.434       .  S
N604        C605   1.340       .  A
C605        N606   1.373       .  A
C607        N608   1.367       .  A
C607        N612   1.354       .  A
N608        C609   1.369       .  A
C609        N610   1.352       .  A
N610        C611   1.346       .  A
C611        N612   1.343       .  A
C611        C802   1.415       .  S
C613        N614   1.380       .  A
C613        N618   1.353       .  A
N614        C615   1.377       .  A
C615        N616   1.349       .  A
N616        C617   1.339       .  A
C617        N618   1.345       .  A
C617        C800   1.407       .  S
C619        N620   1.372       .  A
C619        N624   1.385       .  A
N620        C621   1.362       .  A
C621        N622   1.333       .  A
C621        C797   1.429       .  S
N622        C623   1.340       .  A
C623        N624   1.379       .  A
C625        N626   1.340       .  A
C625        N630   1.389       .  A
N626        C627   1.325       .  A
C627        N628   1.350       .  A
C627        C795   1.416       .  S
N628        C629   1.367       .  A
C629        N630   1.394       .  A
C631        N632   1.348       .  A
C631        N636   1.382       .  A
N632        C633   1.341       .  A
C633        N634   1.341       .  A
C633        C793   1.401       .  S
N634        C635   1.350       .  A
C635        N636   1.381       .  A
C637        N638   1.357       .  A
C637        N642   1.382       .  A
N638        C639   1.337       .  A
C639        N640   1.340       .  A
C639        C791   1.422       .  S
N640        C641   1.355       .  A
C641        N642   1.382       .  A
C643        N644   1.336       .  A
C643        N648   1.379       .  A
N644        C645   1.328       .  A
C645        N646   1.358       .  A
C645        C789   1.422       .  S
N646        C647   1.372       .  A
C647        N648   1.386       .  A
C649        N650   1.375       .  A
C649        N654   1.355       .  A
N650        C651   1.377       .  A
C651        N652   1.350       .  A
N652        C653   1.343       .  A
C653        N654   1.344       .  A
C653        C787   1.411       .  S
C655        N656   1.365       .  A
C655        N660   1.390       .  A
N656        C657   1.356       .  A
C657        N658   1.330       .  A
C657        C786   1.417       .  S
N658        C659   1.339       .  A
C659        N660   1.384       .  A
C661        N662   1.372       .  A
C661        N666   1.342       .  A
N662        C663   1.380       .  A
C663        N664   1.364       .  A
N664        C665   1.356       .  A
C665        N666   1.335       .  A
C665        C784   1.418       .  S
C667        N668   1.385       .  A
C667        N672   1.351       .  A
N668        C669   1.385       .  A
C669        N670   1.360       .  A
N670        C671   1.339       .  A
C671        N672   1.334       .  A
C671        C781   1.419       .  S
O673       Zr709   2.400       .  S
O673        C684   1.282       .  A
O674       Zr708   2.436   1_565  S
O674        C685   1.291   1_554  A
O675       Zr681   2.438       .  S
O675        C686   1.293   1_565  A
O676       Zr681   2.400   1_655  S
O676        C687   1.282   1_556  A
O677       Zr711   2.466   1_565  S
O677        C687   1.297       .  A
O678       Zr710   2.393       .  S
O678        C686   1.282       .  A
O679       Zr681   2.408       .  S
O679        C685   1.285       .  A
O680       Zr681   2.466   1_655  S
O680        C684   1.297   1_565  A
Zr681       O682   2.340   1_556  S
Zr681       O683   2.286   1_465  S
Zr681       O691   2.329   1_465  S
Zr681       O689   2.359   1_565  S
O682       Zr708   2.281   1_565  S
O682       Zr711   2.309   1_465  S
O683       Zr709   2.308       .  S
O683       Zr710   2.339   1_655  S
C684        C828   1.425   1_545  S
C685        C824   1.417       .  S
C686        C818   1.411   1_545  S
C687        C814   1.424       .  S
H688        O689   0.966   1_565  S
O689       Zr708   2.347   1_556  S
O689       Zr710   2.350       .  S
H690        O691   0.962   1_554  S
O691       Zr709   2.347       .  S
O691       Zr711   2.299   1_556  S
O692       Zr708   2.399       .  S
O692        C715   1.280       .  A
O693       Zr709   2.434       .  S
O693        C716   1.292   1_556  A
O694       Zr710   2.455       .  S
O694        C717   1.295       .  A
O695       Zr711   2.435   1_465  S
O695        C718   1.288       .  A
O696       Zr711   2.445       .  S
O696        C719   1.295       .  A
O697       Zr710   2.401       .  S
O697        C720   1.282   1_455  A
O698       Zr712   2.437       .  S
O698        C721   1.290   1_554  A
O699       Zr712   2.458       .  S
O699        C722   1.298       .  A
O700       Zr710   2.454       .  S
O700        C721   1.294       .  A
O701       Zr711   2.379       .  S
O701        C722   1.280   1_655  A
O702       Zr708   2.372   1_556  S
O702        C717   1.277       .  A
O703       Zr709   2.462       .  S
O703        C720   1.296       .  A
O704       Zr709   2.392   1_554  S
O704        C719   1.281       .  A
O705       Zr708   2.444   1_565  S
O705        C718   1.291       .  A
O706       Zr712   2.460       .  S
O706        C715   1.296       .  A
O707       Zr712   2.419   1_655  S
O707        C716   1.287       .  A
Zr708       O714   2.346       .  S
Zr708       O726   2.311       .  S
Zr709       O713   2.344   1_556  S
Zr709       O724   2.293   1_655  S
Zr710       O714   2.283   1_556  S
Zr710       O724   2.332       .  S
Zr711       O713   2.353       .  S
Zr711       O726   2.338   1_655  S
Zr712       O713   2.346   1_455  S
Zr712       O714   2.329       .  S
Zr712       O726   2.312       .  S
Zr712       O724   2.343   1_554  S
C715        C805   1.419       .  S
C716        C826   1.418       .  S
C717        C816   1.411       .  S
C718        C808   1.432   1_565  S
C719        C812   1.410       .  S
C720        C822   1.422       .  S
C721        C819   1.435       .  S
C722        C810   1.405       .  S
H723        O724   0.960       .  S
H725        O726   0.959       .  S
O727       Zr763   2.409       .  S
O727        C738   1.283       .  A
O728       Zr762   2.436       .  S
O728        C739   1.291       .  A
O729       Zr735   2.429       .  S
O729        C740   1.292       .  A
O730       Zr735   2.426       .  S
O730        C741   1.287       .  A
O731       Zr765   2.445       .  S
O731        C741   1.292       .  A
O732       Zr764   2.416       .  S
O732        C740   1.285       .  A
O733       Zr735   2.395       .  S
O733        C739   1.283       .  A
O734       Zr735   2.462       .  S
O734        C738   1.295       .  A
Zr735       O736   2.325       .  S
Zr735       O737   2.303       .  S
Zr735       O745   2.319       .  S
Zr735       O743   2.351       .  S
O736       Zr762   2.287       .  S
O736       Zr765   2.305       .  S
O737       Zr763   2.318       .  S
O737       Zr764   2.354       .  S
C738        C804   1.434       .  S
C739        C799   1.411       .  S
C740        C801   1.416       .  S
C741        C798   1.430       .  S
H742        O743   0.966       .  S
O743       Zr762   2.342       .  S
O743       Zr764   2.352       .  S
H744        O745   0.960       .  S
O745       Zr763   2.348       .  S
O745       Zr765   2.287       .  S
O746       Zr762   2.388       .  S
O746        C769   1.279       .  A
O747       Zr763   2.422       .  S
O747        C770   1.290       .  A
O748       Zr764   2.444       .  S
O748        C771   1.293       .  A
O749       Zr765   2.397       .  S
O749        C772   1.282       .  A
O750       Zr765   2.441       .  S
O750        C773   1.293       .  A
O751       Zr764   2.388       .  S
O751        C774   1.279       .  A
O752       Zr766   2.390       .  S
O752        C775   1.281       .  A
O753       Zr766   2.454       .  S
O753        C776   1.297       .  A
O754       Zr764   2.483       .  S
O754        C775   1.301       .  A
O755       Zr765   2.379       .  S
O755        C776   1.278       .  A
O756       Zr762   2.411       .  S
O756        C771   1.285       .  A
O757       Zr763   2.467       .  S
O757        C774   1.298       .  A
O758       Zr763   2.402       .  S
O758        C773   1.283       .  A
O759       Zr762   2.457       .  S
O759        C772   1.296       .  A
O760       Zr766   2.474       .  S
O760        C769   1.299       .  A
O761       Zr766   2.443       .  S
O761        C770   1.291       .  A
Zr762       O768   2.344       .  S
Zr762       O780   2.331       .  S
Zr763       O767   2.349       .  S
Zr763       O778   2.303       .  S
Zr764       O768   2.291       .  S
Zr764       O778   2.334       .  S
Zr765       O767   2.336       .  S
Zr765       O780   2.343       .  S
Zr766       O767   2.337       .  S
Zr766       O768   2.329       .  S
Zr766       O780   2.305       .  S
Zr766       O778   2.350       .  S
C769        C796   1.422       .  S
C770        C792   1.421       .  S
C771        C782   1.422       .  S
C772        C785   1.416       .  S
C773        C788   1.412       .  S
C774        C783   1.420       .  S
C775        C790   1.427       .  S
C776        C794   1.408       .  S
H777        O778   0.961       .  S
H779        O780   0.961       .  S
C781        C782   1.197       .  T
C783        C784   1.197       .  T
C785        C786   1.198       .  T
C787        C788   1.191       .  T
C789        C790   1.203       .  T
C791        C792   1.197       .  T
C793        C794   1.188       .  T
C795        C796   1.199       .  T
C797        C798   1.205       .  T
C799        C800   1.191       .  T
C801        C802   1.193       .  T
C803        C804   1.208       .  T
C805        C806   1.198       .  T
C807        C808   1.207       .  T
C809        C810   1.186       .  T
C811        C812   1.188       .  T
C813        C814   1.201   1_455  T
C815        C816   1.188       .  T
C817        C818   1.189       .  T
C819        C820   1.209       .  T
C821        C822   1.199       .  T
C823        C824   1.193       .  T
C825        C826   1.194       .  T
C827        C828   1.203       .  T
