geometry optimzed in LAMMPS
_audit_creation_date              2020-12-01 
_audit_creation_method            'lammps2cif' 
_symmetry_space_group_name_H-M    'P1' 
_symmetry_Int_Tables_number       1 
_symmetry_cell_setting            triclinic 
loop_ 
_symmetry_equiv_pos_as_xyz 
  x,y,z 
_cell_length_a                    43.12615473 
_cell_length_b                    43.10364341326702 
_cell_length_c                    60.203262499956615 
_cell_angle_alpha                 89.76111451825294 
_cell_angle_beta                  89.92540681052728 
_cell_angle_gamma                 119.81435237107141 
loop_ 
_atom_site_label 
_atom_site_type_symbol 
_atom_site_fract_x 
_atom_site_fract_y 
_atom_site_fract_z 
_atom_site_charge 
O1          O  0.32218916  0.24184290  0.08347200    -0.72400
O2          O  0.40608002  0.23483230  0.07745866    -0.72600
O3          O  0.35693601  0.21775776  0.10935465    -0.72500
O4          O  0.37102004  0.25751928  0.05162222    -0.72500
O5          O  0.40381513  0.31107449  0.06477897    -0.72400
O6          O  0.38739053  0.27080591  0.12344925    -0.72500
O7          O  0.43695912  0.28789655  0.09176182    -0.72400
O8          O  0.35400632  0.29540122  0.09656844    -0.72600
V9          V  0.36456764  0.23902066  0.08079473     1.35200
V10         V  0.39480113  0.29026009  0.09394401     1.35200
C11         C  0.32408556  0.27046156  0.09035524     0.76800
C12         C  0.43573104  0.26046263  0.08367679     0.76900
C13         C  0.37014363  0.23712490  0.12626880     0.76800
C14         C  0.39043783  0.29063221  0.04821725     0.76700
O15         O  0.41724788  0.24196745  0.91933094    -0.72400
O16         O  0.32713476  0.23695759  0.92584744    -0.72600
O17         O  0.35905629  0.22031113  0.89338906    -0.72500
O18         O  0.38410921  0.25732057  0.95169537    -0.72500
O19         O  0.40888877  0.31171249  0.93885363    -0.72400
O20         O  0.37907514  0.27404813  0.88034739    -0.72500
O21         O  0.35114771  0.29195790  0.91420024    -0.72400
O22         O  0.43894397  0.29496954  0.90494311    -0.72600
V23         V  0.37245875  0.24015574  0.92227322     1.35200
V24         V  0.39428107  0.29210035  0.90975458     1.35200
C25         C  0.44371295  0.26975028  0.91129149     0.76800
C26         C  0.32424027  0.26412162  0.92139048     0.76900
C27         C  0.36315842  0.24056915  0.87709766     0.76800
C28         C  0.39970247  0.29050432  0.95530519     0.76700
O29         O  0.19605525  0.30890718  0.07985128    -0.72400
O30         O  0.10876457  0.31139345  0.07769861    -0.72600
O31         O  0.16058215  0.32957903  0.10783665    -0.72500
O32         O  0.14453642  0.29293364  0.04956975    -0.72500
O33         O  0.11961032  0.23848863  0.06227334    -0.72400
O34         O  0.12842298  0.27608526  0.12132302    -0.72500
O35         O  0.08089166  0.25592136  0.08827275    -0.72400
O36         O  0.16728597  0.25683748  0.09569026    -0.72600
V37         V  0.15215440  0.30975005  0.07902898     1.35200
V38         V  0.12475777  0.25786911  0.09170294     1.35200
C39         C  0.19612008  0.28175598  0.08805968     0.76800
C40         C  0.07960880  0.28311623  0.08201361     0.76900
C41         C  0.14583737  0.30968228  0.12447433     0.76800
C42         C  0.12901888  0.25985586  0.04581335     0.76700
O43         O  0.11130979  0.30789611  0.91485032    -0.72400
O44         O  0.19847225  0.30604384  0.92126171    -0.72600
O45         O  0.16850825  0.32473083  0.88835030    -0.72500
O46         O  0.14272734  0.29132300  0.94747162    -0.72500
O47         O  0.11366043  0.23632701  0.93606080    -0.72400
O48         O  0.14584403  0.27017353  0.87660530    -0.72500
O49         O  0.17032139  0.25033739  0.91159252    -0.72400
O50         O  0.08677936  0.25454300  0.90105310    -0.72600
V51         V  0.15474030  0.30654595  0.91765207     1.35200
V52         V  0.12951497  0.25394986  0.90642793     1.35200
C53         C  0.08367331  0.28061226  0.90752941     0.76800
C54         C  0.19850070  0.27691626  0.91847360     0.76900
C55         C  0.16314349  0.30353678  0.87253227     0.76800
C56         C  0.12420091  0.25846252  0.95196607     0.76700
O57         O  0.29398252  0.11804903  0.75306284    -0.72400
O58         O  0.29528572  0.20613211  0.74397353    -0.72600
O59         O  0.31464833  0.17778059  0.77750244    -0.72500
O60         O  0.27648011  0.14782544  0.71998489    -0.72500
O61         O  0.22233755  0.12498536  0.73286449    -0.72400
O62         O  0.26114380  0.15449659  0.79135488    -0.72500
O63         O  0.24181286  0.18229397  0.75787062    -0.72400
O64         O  0.24013998  0.09470646  0.76622078    -0.72600
V65         V  0.29409692  0.16192032  0.74902059     1.35200
V66         V  0.24243977  0.13938758  0.76195898     1.35200
C67         C  0.26621130  0.09088119  0.76045749     0.76800
C68         C  0.26788090  0.20852410  0.74859148     0.76900
C69         C  0.29475939  0.17267004  0.79412311     0.76800
C70         C  0.24334945  0.13259207  0.71642599     0.76700
O71         O  0.30063278  0.21079497  0.58770351    -0.72400
O72         O  0.29993207  0.12291912  0.59556841    -0.72600
O73         O  0.32095439  0.17160140  0.56287822    -0.72500
O74         O  0.28109074  0.16167055  0.62033981    -0.72500
O75         O  0.22739149  0.13238584  0.60682502    -0.72400
O76         O  0.26776745  0.14305745  0.54863552    -0.72500
O77         O  0.24679069  0.09485275  0.58130056    -0.72400
O78         O  0.24727083  0.18165550  0.57393978    -0.72600
V79         V  0.29966162  0.16640179  0.59127782     1.35200
V80         V  0.24837196  0.13881774  0.57787650     1.35200
C81         C  0.27336451  0.21095083  0.58001983     0.76800
C82         C  0.27288455  0.09386308  0.58986804     0.76900
C83         C  0.30135608  0.15757866  0.54615383     0.76800
C84         C  0.24779187  0.14386634  0.62355408     0.76700
O85         O  0.23643327  0.42868706  0.74910486    -0.72400
O86         O  0.23571540  0.34079525  0.73932124    -0.72600
O87         O  0.21491437  0.36770707  0.77283327    -0.72500
O88         O  0.25518443  0.39999650  0.71564720    -0.72500
O89         O  0.30881272  0.42302309  0.72913437    -0.72400
O90         O  0.26784397  0.38964565  0.78716632    -0.72500
O91         O  0.28888391  0.36456420  0.75341262    -0.72400
O92         O  0.28946386  0.45097197  0.76321926    -0.72600
V93         V  0.23654895  0.38486603  0.74459337     1.35200
V94         V  0.28768278  0.40686300  0.75804858     1.35200
C95         C  0.26360176  0.45514172  0.75755196     0.76800
C96         C  0.26306656  0.33839699  0.74417562     0.76900
C97         C  0.23410334  0.37156699  0.78955945     0.76800
C98         C  0.28843977  0.41525674  0.71239278     0.76700
O99         O  0.24234521  0.34387555  0.58299419    -0.72400
O100        O  0.24330006  0.43239336  0.58846245    -0.72600
O101        O  0.22384411  0.38290688  0.55635145    -0.72500
O102        O  0.25946871  0.39282669  0.61488621    -0.72500
O103        O  0.31413595  0.41946636  0.60257585    -0.72400
O104        O  0.27782280  0.41359986  0.54330772    -0.72500
O105        O  0.29828342  0.45975542  0.57708725    -0.72400
O106        O  0.29563875  0.37230284  0.56884669    -0.72600
V107        V  0.24322623  0.38838029  0.58531824     1.35200
V108        V  0.29537567  0.41548049  0.57306249     1.35200
C109        C  0.26966664  0.34334962  0.57565700     0.76800
C110        C  0.27191481  0.46142238  0.58455737     0.76900
C111        C  0.24426742  0.39808135  0.53999478     0.76800
C112        C  0.29247990  0.40853611  0.61888178     0.76700
O113        O  0.19991244  0.42885239  0.25134285    -0.73600
O114        O  0.11016857  0.34264054  0.25766542    -0.72600
O115        O  0.16051135  0.37023249  0.22594795    -0.72500
O116        O  0.14963050  0.39928351  0.28325908    -0.72500
O117        O  0.12226253  0.42585935  0.26960010    -0.72400
O118        O  0.13365624  0.39651665  0.21129373    -0.72500
O119        O  0.08412175  0.36990235  0.24341224    -0.72400
O120        O  0.17205813  0.45445659  0.23713477    -0.72600
V121        V  0.15469850  0.38588586  0.25422529     1.35200
V122        V  0.12873391  0.41130100  0.24056714     1.35200
C123        C  0.20092853  0.45670630  0.24346703     0.76800
C124        C  0.08162545  0.34199413  0.25184975     0.76900
C125        C  0.14810250  0.37721752  0.20887625     0.76800
C126        C  0.13323418  0.41626845  0.28642551     0.76700
O127        O  0.12053268  0.34624005  0.41398866    -0.72400
O128        O  0.20830533  0.43471022  0.40981478    -0.72600
O129        O  0.17789694  0.38301847  0.44074127    -0.72500
O130        O  0.15264380  0.39803206  0.38289121    -0.72500
O131        O  0.12384355  0.42296213  0.39669910    -0.72400
O132        O  0.15568462  0.41406716  0.45487195    -0.72500
O133        O  0.18077891  0.46186221  0.42185420    -0.72400
O134        O  0.09621913  0.37415019  0.42984100    -0.72600
V135        V  0.16420925  0.39084195  0.41216053     1.35200
V136        V  0.13943669  0.41747946  0.42564935     1.35200
C137        C  0.09316747  0.34551065  0.42233782     0.76800
C138        C  0.20899422  0.46362836  0.41460135     0.76900
C139        C  0.17316963  0.39773248  0.45749593     0.76800
C140        C  0.13471561  0.41355399  0.37979287     0.76700
O141        O  0.31693722  0.12141021  0.25563582    -0.72400
O142        O  0.40496512  0.20942518  0.25962377    -0.72600
O143        O  0.35403113  0.17890888  0.22870982    -0.72500
O144        O  0.36788271  0.15371331  0.28656997    -0.72500
O145        O  0.39590018  0.12759391  0.27326309    -0.72400
O146        O  0.38250670  0.15391668  0.21464559    -0.72500
O147        O  0.43243265  0.18278316  0.24623640    -0.72400
O148        O  0.34559786  0.09667697  0.24158090    -0.72600
V149        V  0.36130155  0.16522076  0.25731777     1.35200
V150        V  0.38833373  0.14057903  0.24412167     1.35200
C151        C  0.31651496  0.09373014  0.24819584     0.76800
C152        C  0.43375561  0.21048802  0.25390733     0.76900
C153        C  0.36680513  0.17194358  0.21181896     0.76800
C154        C  0.38538182  0.13786256  0.28989823     0.76700
O155        O  0.41961242  0.21328753  0.41964471    -0.72400
O156        O  0.33036705  0.12727308  0.41494537    -0.72600
O157        O  0.36351890  0.17563372  0.44697602    -0.72500
O158        O  0.38541487  0.16540734  0.38760122    -0.72500
O159        O  0.41096753  0.13542205  0.39851284    -0.72400
O160        O  0.38658417  0.14378052  0.45861679    -0.72500
O161        O  0.35609752  0.09731512  0.42554822    -0.72400
O162        O  0.44361325  0.18263533  0.43159306    -0.72600
V163        V  0.37528215  0.16989755  0.41755108     1.35200
V164        V  0.39903349  0.14058986  0.42842382     1.35200
C165        C  0.44715055  0.21244097  0.42608543     0.76800
C166        C  0.32843525  0.09759635  0.41928839     0.76900
C167        C  0.37001429  0.16054531  0.46284586     0.76800
C168        C  0.40105879  0.14817546  0.38283259     0.76700
C169        C  0.40568305  0.14237145  0.35925729    -0.06700
C170        C  0.38129503  0.10933782  0.34980998    -0.17900
C171        C  0.37612417  0.10567390  0.32671422     0.10500
C172        C  0.39609236  0.13561142  0.31280170    -0.06700
C173        C  0.42233737  0.16776654  0.32219760    -0.17900
C174        C  0.42725772  0.17149975  0.34518782     0.10500
S175        S  0.34099471  0.06358436  0.31636580    -0.32900
S176        S  0.45913589  0.21501285  0.35571607    -0.32900
H177        H  0.46516379  0.20277342  0.37606204     0.28500
H178        H  0.35393637  0.06782071  0.29449980     0.28500
H179        H  0.36404796  0.08710088  0.36057124     0.19100
H180        H  0.43744970  0.19098781  0.31161514     0.19100
C181        C  0.24136372  0.49916949  0.41249655    -0.06700
C182        C  0.23229964  0.02509348  0.42463551    -0.17900
C183        C  0.26230753  0.05903837  0.42496362     0.10500
C184        C  0.29512214  0.06355057  0.41738875    -0.06700
C185        C  0.29694942  0.03406815  0.40915580    -0.17900
C186        C  0.26684902  0.99999832  0.40873832     0.10500
S187        S  0.25745451  0.09469813  0.43692117    -0.32900
S188        S  0.27821649  0.47096274  0.38818381    -0.32900
H189        H  0.24677564  0.45913776  0.37572815     0.28500
H190        H  0.28859199  0.10818043  0.44988004     0.28500
H191        H  0.21568940  0.52475294  0.42956801     0.19100
H192        H  0.32218465  0.03764017  0.40299083     0.19100
C193        C  0.05806262  0.31241029  0.42300725    -0.06700
C194        C  0.05613057  0.28035556  0.42965358    -0.17900
C195        C  0.51535150  0.24497664  0.42746080     0.10500
C196        C  0.48264681  0.24541899  0.42651814    -0.06700
C197        C  0.48389338  0.27844281  0.42436482    -0.17900
C198        C  0.02613210  0.31256299  0.41793747     0.10500
S199        S  0.51807022  0.20481665  0.43040255    -0.32900
S200        S  0.02545960  0.35158184  0.40764771    -0.32900
H201        H  0.05594082  0.36328167  0.39417714     0.28500
H202        H  0.50074906  0.19630559  0.45120385     0.28500
H203        H  0.08050296  0.28013508  0.43381043     0.19100
H204        H  0.45927888  0.27945345  0.42344995     0.19100
C205        C  0.23408124  0.49202944  0.24256074    -0.06700
C206        C  0.21959276  0.01813850  0.24952706    -0.17900
C207        C  0.24884462  0.05300181  0.24938747     0.10500
C208        C  0.28373634  0.05802851  0.24778298    -0.06700
C209        C  0.28799595  0.02776564  0.24575176    -0.17900
C210        C  0.25872493  0.99309792  0.24539802     0.10500
S211        S  0.24073804  0.09029779  0.25068386    -0.32900
S212        S  0.27655230  0.45950111  0.23678771    -0.32900
H213        H  0.24808106  0.44138561  0.22185105     0.28500
H214        H  0.20317545  0.07037173  0.25042208     0.28500
H215        H  0.20404408  0.51957057  0.24501784     0.19100
H216        H  0.31451414  0.03100780  0.24425768     0.19100
C217        C  0.04565390  0.31012565  0.25431216    -0.06700
C218        C  0.01632132  0.31274699  0.24619908    -0.17900
C219        C  0.47535103  0.27604135  0.24789946     0.10500
C220        C  0.46866726  0.24269517  0.25600071    -0.06700
C221        C  0.49684021  0.23895438  0.26465149    -0.17900
C222        C  0.03937272  0.27723709  0.26349447     0.10500
S223        S  0.44145469  0.28283596  0.23501257    -0.32900
S224        S  0.07377406  0.27045344  0.27549402    -0.32900
H225        H  0.08552304  0.29973971  0.28994669     0.28500
H226        H  0.42601658  0.25060913  0.22309845     0.28500
H227        H  0.02021495  0.33759189  0.23913135     0.19100
H228        H  0.49159014  0.21315289  0.27099191     0.19100
C229        C  0.12685579  0.42302865  0.30962308    -0.06700
C230        C  0.15559504  0.45014109  0.32130079    -0.17900
C231        C  0.15650945  0.44995625  0.34460639     0.10500
C232        C  0.12868690  0.42148352  0.35669398    -0.06700
C233        C  0.09862218  0.39593053  0.34510767    -0.17900
C234        C  0.09719996  0.39678115  0.32177744     0.10500
S235        S  0.19550466  0.48501794  0.35795700    -0.32900
S236        S  0.05854375  0.36137570  0.30830484    -0.32900
H237        H  0.06120143  0.38111075  0.28904262     0.28500
H238        H  0.17752833  0.48481002  0.37750015     0.28500
H239        H  0.17860949  0.47017856  0.31220860     0.19100
H240        H  0.07722461  0.37388411  0.35410459     0.19100
C241        C  0.22821674  0.39850218  0.51805248    -0.06700
C242        C  0.20108900  0.36606575  0.50932249    -0.17900
C243        C  0.18214822  0.36505334  0.49003436     0.10500
C244        C  0.18967231  0.39723365  0.47917324    -0.06700
C245        C  0.21677240  0.42968881  0.48785039    -0.17900
C246        C  0.23598287  0.43068337  0.50700865     0.10500
S247        S  0.14831308  0.32182242  0.48027777    -0.32900
S248        S  0.26929676  0.47394977  0.51691728    -0.32900
H249        H  0.25921835  0.46613876  0.53931518     0.28500
H250        H  0.12624705  0.33350278  0.47054920     0.28500
H251        H  0.19435766  0.34119385  0.51773953     0.19100
H252        H  0.22335416  0.45454032  0.47946185     0.19100
C253        C  0.30170264  0.42020207  0.68923368    -0.06700
C254        C  0.30206545  0.39099422  0.67918682    -0.17900
C255        C  0.30308154  0.38820686  0.65599893     0.10500
C256        C  0.30408132  0.41537282  0.64233690    -0.06700
C257        C  0.30611228  0.44571289  0.65241422    -0.17900
C258        C  0.30473843  0.44833365  0.67562752     0.10500
S259        S  0.29900066  0.34756991  0.64481651    -0.32900
S260        S  0.30305967  0.48628474  0.68673323    -0.32900
H261        H  0.31450152  0.48421710  0.70826611     0.28500
H262        H  0.31415195  0.36186455  0.62394926     0.28500
H263        H  0.29854336  0.36867106  0.68941367     0.19100
H264        H  0.30580724  0.46623971  0.64206358     0.19100
C265        C  0.27076147  0.05912015  0.59301526    -0.06700
C266        C  0.23659818  0.02871700  0.59491821    -0.17900
C267        C  0.23210550  0.99442334  0.59600571     0.10500
C268        C  0.27560165  0.49703061  0.58779717    -0.06700
C269        C  0.29668837  0.02086712  0.59460635    -0.17900
C270        C  0.30119573  0.05506226  0.59339646     0.10500
S271        S  0.20938844  0.46766679  0.61081112    -0.32900
S272        S  0.34630264  0.09171472  0.59052438    -0.32900
H273        H  0.33860911  0.10676897  0.57203005     0.28500
H274        H  0.22859906  0.45514139  0.62326856     0.28500
H275        H  0.21303598  0.03160818  0.59530395     0.19100
H276        H  0.32894254  0.52374854  0.57337641     0.19100
C277        C  0.27181815  0.24445607  0.57833900    -0.06700
C278        C  0.30398413  0.27705267  0.57708750    -0.17900
C279        C  0.30439355  0.30974390  0.57598391     0.10500
C280        C  0.27154275  0.30990219  0.57571142    -0.06700
C281        C  0.23943812  0.27727479  0.57697115    -0.17900
C282        C  0.23906408  0.24468624  0.57853774     0.10500
S283        S  0.34723865  0.35058863  0.57600714    -0.32900
S284        S  0.19643130  0.20415314  0.58195447    -0.32900
H285        H  0.17520607  0.22031357  0.58432887     0.28500
H286        H  0.36864553  0.33498310  0.57999003     0.28500
H287        H  0.32901417  0.27687096  0.57706101     0.19100
H288        H  0.21437195  0.27735926  0.57698662     0.19100
C289        C  0.31792314  0.15757956  0.52455831    -0.06700
C290        C  0.33984050  0.19038623  0.51387858    -0.17900
C291        C  0.35889346  0.19242719  0.49448351     0.10500
C292        C  0.35621689  0.16098914  0.48536758    -0.06700
C293        C  0.33546413  0.12836846  0.49654950    -0.17900
C294        C  0.31620594  0.12626808  0.51587565     0.10500
S295        S  0.38713313  0.23610525  0.48252021    -0.32900
S296        S  0.29147283  0.08315635  0.52923357    -0.32900
H297        H  0.26151485  0.08634190  0.53457710     0.28500
H298        H  0.41266485  0.22825851  0.47367965     0.28500
H299        H  0.34245490  0.21472207  0.52086089     0.19100
H300        H  0.33310888  0.10405029  0.48970555     0.19100
C301        C  0.26651596  0.49086469  0.75990982    -0.06700
C302        C  0.28809295  0.01535382  0.76215175    -0.17900
C303        C  0.29318496  0.05009191  0.76195203     0.10500
C304        C  0.26311792  0.05494623  0.76143220    -0.06700
C305        C  0.22873210  0.02449272  0.76104489    -0.17900
C306        C  0.22372423  0.98975629  0.76125472     0.10500
S307        S  0.33830873  0.08754615  0.76298284    -0.32900
S308        S  0.19143194  0.45901467  0.76439075    -0.32900
H309        H  0.20051412  0.43935788  0.77911422     0.28500
H310        H  0.35626644  0.06805841  0.76033539     0.28500
H311        H  0.32397683  0.51794759  0.75839099     0.19100
H312        H  0.20536884  0.02769009  0.76045810     0.19100
C313        C  0.26485547  0.30556466  0.74037084    -0.06700
C314        C  0.23295872  0.27278791  0.73954084    -0.17900
C315        C  0.23325339  0.24049652  0.74064836     0.10500
C316        C  0.26617572  0.24114990  0.74362942    -0.06700
C317        C  0.29812982  0.27379735  0.74228895    -0.17900
C318        C  0.29787484  0.30585279  0.74004914     0.10500
S319        S  0.19144747  0.19902160  0.73783128    -0.32900
S320        S  0.34069550  0.34590963  0.73670774    -0.32900
H321        H  0.32807073  0.36290818  0.72231650     0.28500
H322        H  0.17057839  0.21421166  0.73127413     0.28500
H323        H  0.20772212  0.27244179  0.73896701     0.19100
H324        H  0.32352788  0.27448404  0.74337374     0.19100
C325        C  0.23100945  0.12594909  0.69321805    -0.06700
C326        C  0.22287672  0.15038852  0.68295586    -0.17900
C327        C  0.22454175  0.15464838  0.65973397     0.10500
C328        C  0.23441182  0.13392843  0.64653796    -0.06700
C329        C  0.23940605  0.10739063  0.65674735    -0.17900
C330        C  0.23768781  0.10312553  0.67985414     0.10500
S331        S  0.21781034  0.18954487  0.64824637    -0.32900
S332        S  0.24769927  0.07048883  0.69155296    -0.32900
H333        H  0.22962160  0.06623808  0.71179307     0.28500
H334        H  0.20946768  0.17572604  0.62664000     0.28500
H335        H  0.21840879  0.16849347  0.69313702     0.19100
H336        H  0.24717416  0.09149589  0.64673967     0.19100
C337        C  0.17831061  0.31825242  0.85020743    -0.06700
C338        C  0.20402881  0.31099599  0.84107666    -0.17900
C339        C  0.22301302  0.32836140  0.82162301     0.10500
C340        C  0.21665238  0.35404048  0.81097510    -0.06700
C341        C  0.19031548  0.36059425  0.81985287    -0.17900
C342        C  0.17129270  0.34318569  0.83924126     0.10500
S343        S  0.25422631  0.31584201  0.81086324    -0.32900
S344        S  0.13798573  0.35359134  0.84904169    -0.32900
H345        H  0.11544778  0.31995876  0.85875910     0.28500
H346        H  0.24450586  0.31554083  0.78858473     0.28500
H347        H  0.20987056  0.29215337  0.84938897     0.19100
H348        H  0.18444964  0.37944949  0.81157077     0.19100
C349        C  0.14779246  0.32651250  0.14649602    -0.06700
C350        C  0.15059171  0.36054261  0.14660433    -0.17900
C351        C  0.15166647  0.37808449  0.16642974     0.10500
C352        C  0.14923053  0.36130451  0.18706447    -0.06700
C353        C  0.14696508  0.32748414  0.18701140    -0.17900
C354        C  0.14649735  0.31016844  0.16714326     0.10500
S355        S  0.15745081  0.42234813  0.16416331    -0.32900
S356        S  0.14532660  0.26790140  0.16936856    -0.32900
H357        H  0.16963818  0.27497132  0.15185604     0.28500
H358        H  0.18134714  0.43630524  0.18209364     0.28500
H359        H  0.15190689  0.37376810  0.13101459     0.19100
H360        H  0.14536854  0.31422113  0.20263596     0.19100
C361        C  0.12047006  0.24800179  0.02249211    -0.06700
C362        C  0.09631931  0.25568416  0.01156342    -0.17900
C363        C  0.09430974  0.25572556  0.98835573     0.10500
C364        C  0.11661727  0.24740281  0.97553425    -0.06700
C365        C  0.13898619  0.23716724  0.98646510    -0.17900
C366        C  0.14140263  0.23776834  0.00985138     0.10500
S367        S  0.06524901  0.27007491  0.97618304    -0.32900
S368        S  0.17394840  0.22946572  0.02332572    -0.32900
H369        H  0.18835735  0.22363557  0.00385824     0.28500
H370        H  0.06280562  0.25517944  0.95516879     0.28500
H371        H  0.08067627  0.26425430  0.02117715     0.19100
H372        H  0.15676266  0.23175001  0.97663550     0.19100
C373        C  0.47936703  0.27266238  0.90969896    -0.06700
C374        C  0.48095067  0.24101472  0.90877512    -0.17900
C375        C  0.01569540  0.24531233  0.90818447     0.10500
C376        C  0.04823326  0.27843840  0.90736656    -0.06700
C377        C  0.04673552  0.31021831  0.90721366    -0.17900
C378        C  0.51170068  0.30589903  0.91007902     0.10500
S379        S  0.01312812  0.20228474  0.90987352    -0.32900
S380        S  0.51209408  0.34798177  0.91195242    -0.32900
H381        H  0.54925859  0.37061630  0.90999934     0.28500
H382        H  0.03836302  0.21212948  0.92698695     0.28500
H383        H  0.45640876  0.21542338  0.90842249     0.19100
H384        H  0.07125116  0.33572037  0.90669215     0.19100
C385        C  0.23007348  0.27277334  0.92248292    -0.06700
C386        C  0.22841103  0.24099179  0.91506682    -0.17900
C387        C  0.25811960  0.23639083  0.91568827     0.10500
C388        C  0.29056102  0.26418975  0.92389079    -0.06700
C389        C  0.29180660  0.29487096  0.93276047    -0.17900
C390        C  0.26171897  0.29906085  0.93270128     0.10500
S391        S  0.25319373  0.19547773  0.90439798    -0.32900
S392        S  0.26546291  0.33789244  0.94632508    -0.32900
H393        H  0.23240541  0.31860347  0.95740769     0.28500
H394        H  0.28567637  0.21181572  0.89268712     0.28500
H395        H  0.20413900  0.21987457  0.90778267     0.19100
H396        H  0.31653370  0.31582168  0.93973555     0.19100
C397        C  0.31119383  0.18925559  0.81581256    -0.06700
C398        C  0.34143212  0.18779698  0.82315874    -0.17900
C399        C  0.35961371  0.20518258  0.84265554     0.10500
C400        C  0.34772627  0.22492731  0.85518691    -0.06700
C401        C  0.31792067  0.22689699  0.84772145    -0.17900
C402        C  0.29967225  0.20946151  0.82829510     0.10500
S403        S  0.39813448  0.20168340  0.85048820    -0.32900
S404        S  0.26290532  0.21541584  0.81982576    -0.32900
H405        H  0.27309618  0.22140014  0.79733431     0.28500
H406        H  0.41615266  0.23453323  0.86167639     0.28500
H407        H  0.35108935  0.17307823  0.81356143     0.19100
H408        H  0.30863077  0.24206445  0.85717353     0.19100
C409        C  0.36663524  0.22000779  0.14842507    -0.06700
C410        C  0.36469274  0.18640202  0.14922910    -0.17900
C411        C  0.36349245  0.16950093  0.16944658     0.10500
C412        C  0.36483569  0.18656296  0.18969075    -0.06700
C413        C  0.36545112  0.21955821  0.18889890    -0.17900
C414        C  0.36598852  0.23615319  0.16866795     0.10500
S415        S  0.35895311  0.12567089  0.16820607    -0.32900
S416        S  0.36441929  0.27711410  0.16988193    -0.32900
H417        H  0.34115352  0.26879739  0.15170219     0.28500
H418        H  0.33516687  0.11182856  0.18632733     0.28500
H419        H  0.36431871  0.17311636  0.13390907     0.19100
H420        H  0.36573421  0.23278459  0.20422155     0.19100
C421        C  0.46862276  0.25919492  0.08187593    -0.06700
C422        C  0.49495922  0.28309866  0.06716902    -0.17900
C423        C  0.03810332  0.30665092  0.07058756     0.10500
C424        C  0.04426359  0.28057337  0.08071343    -0.06700
C425        C  0.01540693  0.25041864  0.09077196    -0.17900
C426        C  0.47656688  0.23950480  0.09718143     0.10500
S427        S  0.07154428  0.34405153  0.05490001    -0.32900
S428        S  0.44489329  0.20990545  0.11755697    -0.32900
H429        H  0.41580129  0.19449589  0.10291251     0.28500
H430        H  0.08288595  0.32330919  0.04310029     0.28500
H431        H  0.48872118  0.29858597  0.05559417     0.19100
H432        H  0.01925242  0.22993222  0.09859656     0.19100
C433        C  0.29208209  0.27461630  0.09069285    -0.06700
C434        C  0.25861385  0.24352197  0.09153587    -0.17900
C435        C  0.22711855  0.24494795  0.09030631     0.10500
C436        C  0.22869110  0.27857035  0.08870780    -0.06700
C437        C  0.26217185  0.30979469  0.08805401    -0.17900
C438        C  0.29391231  0.30831996  0.08899082     0.10500
S439        S  0.18622301  0.20241708  0.08988744    -0.32900
S440        S  0.33610626  0.34967345  0.08700971    -0.32900
H441        H  0.32222041  0.37304214  0.08579342     0.28500
H442        H  0.17162803  0.21159478  0.07186384     0.28500
H443        H  0.25688376  0.21763567  0.09272565     0.19100
H444        H  0.26341183  0.33541747  0.08683158     0.19100
C445        C  0.39770620  0.30370435  0.02509687    -0.06700
C446        C  0.42939229  0.30885619  0.01508898    -0.17900
C447        C  0.43255457  0.30845635  0.99187686     0.10500
C448        C  0.40350478  0.30297130  0.97842406    -0.06700
C449        C  0.37313069  0.30096732  0.98841697    -0.17900
C450        C  0.36994593  0.30128806  0.01154846     0.10500
S451        S  0.47258973  0.31121098  0.98055565    -0.32900
S452        S  0.32842575  0.29496598  0.02288856    -0.32900
H453        H  0.34251430  0.31087627  0.04351798     0.28500
H454        H  0.46975055  0.32327578  0.95934065     0.28500
H455        H  0.45054359  0.31010456  0.02538341     0.19100
H456        H  0.35060973  0.29643545  0.97819111     0.19100
O457        O  0.32587056  0.74563497  0.08261407    -0.72400
O458        O  0.41258570  0.74320793  0.07568903    -0.72600
O459        O  0.36322897  0.72335727  0.10785186    -0.72500
O460        O  0.37490486  0.76357696  0.05042597    -0.72500
O461        O  0.40503188  0.81722577  0.06391401    -0.72400
O462        O  0.39277070  0.77632350  0.12217485    -0.72500
O463        O  0.44124566  0.79637229  0.08971766    -0.72400
O464        O  0.35610932  0.79870127  0.09661879    -0.72600
V465        V  0.36954939  0.74490484  0.07948524     1.35200
V466        V  0.39802520  0.79606616  0.09290362     1.35200
C467        C  0.32661808  0.77343909  0.09018010     0.76800
C468        C  0.44194112  0.77008833  0.08125572     0.76900
C469        C  0.37682268  0.74261559  0.12475478     0.76800
C470        C  0.39269233  0.79687138  0.04721896     0.76700
O471        O  0.42133324  0.75081539  0.91871835    -0.72400
O472        O  0.33083343  0.74444949  0.92413159    -0.72600
O473        O  0.36383679  0.72840509  0.89229789    -0.72500
O474        O  0.38724425  0.76568211  0.95057168    -0.72500
O475        O  0.41107767  0.82001383  0.93773683    -0.72400
O476        O  0.38402829  0.78199311  0.87895375    -0.72500
O477        O  0.35409339  0.79913471  0.91198298    -0.72400
O478        O  0.44325296  0.80411537  0.90464191    -0.72600
V479        V  0.37640681  0.74841843  0.92113899     1.35200
V480        V  0.39790606  0.80028861  0.90850020     1.35200
C481        C  0.44786062  0.77877732  0.91098990     0.76800
C482        C  0.32738616  0.77107987  0.91915234     0.76900
C483        C  0.36826165  0.74845586  0.87584691     0.76800
C484        C  0.40210514  0.79881512  0.95420411     0.76700
O485        O  0.19593033  0.80927904  0.08557640    -0.72400
O486        O  0.10624304  0.80669814  0.08168529    -0.72600
O487        O  0.15750473  0.82840931  0.11264423    -0.72500
O488        O  0.14486293  0.78977368  0.05482981    -0.72500
O489        O  0.12019019  0.73583027  0.06834593    -0.72400
O490        O  0.12890978  0.77503286  0.12684343    -0.72500
O491        O  0.08041018  0.75223972  0.09422544    -0.72400
O492        O  0.16885749  0.75690168  0.10115966    -0.72600
V493        V  0.15082642  0.80761750  0.08405266     1.35200
V494        V  0.12528139  0.75611227  0.09746286     1.35200
C495        C  0.19708061  0.78239078  0.09325356     0.76800
C496        C  0.07781059  0.77810667  0.08668822     0.76900
C497        C  0.14413252  0.80868528  0.12955816     0.76800
C498        C  0.13001860  0.75657082  0.05157978     0.76700
O499        O  0.10708894  0.80256137  0.92208753    -0.72400
O500        O  0.19588202  0.80419797  0.92547888    -0.72600
O501        O  0.16256408  0.82123697  0.89415217    -0.72500
O502        O  0.14151278  0.78713700  0.95345948    -0.72500
O503        O  0.11317118  0.73217794  0.94193224    -0.72400
O504        O  0.14074803  0.76689432  0.88218718    -0.72500
O505        O  0.16902568  0.74851100  0.91577971    -0.72400
O506        O  0.08301203  0.74928355  0.90817628    -0.72600
V507        V  0.15120970  0.80276648  0.92353136     1.35200
V508        V  0.12681411  0.75026125  0.91217198     1.35200
C509        C  0.07969022  0.77520529  0.91469471     0.76800
C510        C  0.19718782  0.77597807  0.92183712     0.76900
C511        C  0.15673010  0.80025687  0.87813259     0.76800
C512        C  0.12411769  0.75416672  0.95791266     0.76700
O513        O  0.30521609  0.62441637  0.75227572    -0.72400
O514        O  0.30232793  0.71087261  0.74354260    -0.72600
O515        O  0.32218499  0.68316352  0.77706740    -0.72500
O516        O  0.28747825  0.65376703  0.71885713    -0.72500
O517        O  0.23260051  0.62766529  0.73076473    -0.72400
O518        O  0.26799398  0.65818170  0.78998740    -0.72500
O519        O  0.24783304  0.68388489  0.75599283    -0.72400
O520        O  0.25098690  0.59917660  0.76494308    -0.72600
V521        V  0.30329036  0.66748316  0.74827131     1.35200
V522        V  0.25095872  0.64252235  0.76028128     1.35200
C523        C  0.27787081  0.59655737  0.75952769     0.76800
C524        C  0.27379437  0.71143860  0.74782245     0.76900
C525        C  0.30141785  0.67737187  0.79328676     0.76800
C526        C  0.25452148  0.63677251  0.71466899     0.76700
O527        O  0.30461603  0.71420031  0.58591831    -0.72400
O528        O  0.31074937  0.62931852  0.59003627    -0.72600
O529        O  0.32720805  0.67942278  0.55867407    -0.72500
O530        O  0.28988111  0.66404666  0.61717603    -0.72500
O531        O  0.23554777  0.63527120  0.60462327    -0.72400
O532        O  0.27378653  0.64621056  0.54563395    -0.72500
O533        O  0.25580466  0.59890713  0.57863041    -0.72400
O534        O  0.25198006  0.68355826  0.57143170    -0.72600
V535        V  0.30709759  0.67137293  0.58764084     1.35200
V536        V  0.25532827  0.64185219  0.57522991     1.35200
C537        C  0.27668437  0.71311664  0.57832790     0.76800
C538        C  0.28367906  0.59954927  0.58541680     0.76900
C539        C  0.30734002  0.66338136  0.54237738     0.76800
C540        C  0.25675937  0.64624681  0.62101713     0.76700
O541        O  0.22524056  0.92168449  0.75286554    -0.72400
O542        O  0.23119660  0.83685273  0.74450935    -0.72600
O543        O  0.20571919  0.86126564  0.77709428    -0.72500
O544        O  0.24834476  0.89519446  0.72060827    -0.72500
O545        O  0.30139782  0.91974847  0.73510337    -0.72400
O546        O  0.25798886  0.88736945  0.79266188    -0.72500
O547        O  0.28282424  0.86280821  0.76069679    -0.72400
O548        O  0.27815030  0.94686638  0.76738264    -0.72600
V549        V  0.22852124  0.87928842  0.74919620     1.35200
V550        V  0.27898535  0.90391711  0.76376507     1.35200
C551        C  0.25168486  0.94936371  0.76087802     0.76800
C552        C  0.25913324  0.83627606  0.75047964     0.76900
C553        C  0.22434745  0.86736251  0.79438919     0.76800
C554        C  0.28175943  0.91146508  0.71797208     0.76700
O555        O  0.23708638  0.84008841  0.58764339    -0.72400
O556        O  0.23302307  0.92577104  0.59468894    -0.72600
O557        O  0.21641692  0.87809659  0.56167486    -0.72500
O558        O  0.25181110  0.88754371  0.62044216    -0.72500
O559        O  0.30650081  0.91733038  0.60831471    -0.72400
O560        O  0.27034863  0.91105854  0.54900846    -0.72500
O561        O  0.28790236  0.95590173  0.58324886    -0.72400
O562        O  0.29060373  0.87134451  0.57408121    -0.72600
V563        V  0.23557842  0.88329753  0.59077001     1.35200
V564        V  0.28774966  0.91304500  0.57878819     1.35200
C565        C  0.26526561  0.84145163  0.58022413     0.76800
C566        C  0.26063877  0.95566203  0.59090553     0.76900
C567        C  0.23684701  0.89438855  0.54548146     0.76800
C568        C  0.28482297  0.90494412  0.62456249     0.76700
O569        O  0.19127628  0.92514316  0.25720588    -0.73600
O570        O  0.10285290  0.83739118  0.26308518    -0.72600
O571        O  0.15355667  0.86675956  0.23141399    -0.72500
O572        O  0.14110654  0.89415612  0.28897616    -0.72500
O573        O  0.11429226  0.92127621  0.27530166    -0.72400
O574        O  0.12384049  0.89021815  0.21706828    -0.72500
O575        O  0.07541268  0.86406350  0.25005506    -0.72400
O576        O  0.16246263  0.94907276  0.24205392    -0.72600
V577        V  0.14677364  0.88141262  0.25984693     1.35200
V578        V  0.11968077  0.90574177  0.24632122     1.35200
C579        C  0.19153699  0.95232951  0.24881719     0.76800
C580        C  0.07378472  0.83622464  0.25797134     0.76900
C581        C  0.14014730  0.87270363  0.21440481     0.76800
C582        C  0.12532340  0.91175308  0.29213241     0.76700
O583        O  0.11120312  0.84289755  0.41975652    -0.72400
O584        O  0.20013063  0.93035353  0.41505717    -0.72600
O585        O  0.16939807  0.87876637  0.44610884    -0.72500
O586        O  0.14390407  0.89447184  0.38854139    -0.72500
O587        O  0.11682390  0.92104107  0.40252493    -0.72400
O588        O  0.14799948  0.91029635  0.46057814    -0.72500
O589        O  0.17394957  0.95840846  0.42777554    -0.72400
O590        O  0.08799953  0.87192795  0.43550997    -0.72600
V591        V  0.15552583  0.88697027  0.41768751     1.35200
V592        V  0.13196163  0.91459384  0.43143427     1.35200
C593        C  0.08418424  0.84294083  0.42809771     0.76800
C594        C  0.20162906  0.95959932  0.42003442     0.76900
C595        C  0.16517657  0.89358083  0.46298755     0.76800
C596        C  0.12702510  0.91107635  0.38554504     0.76700
O597        O  0.32802000  0.62422727  0.25235614    -0.72400
O598        O  0.41466833  0.71296130  0.25702817    -0.72600
O599        O  0.36441118  0.68215613  0.22592701    -0.72500
O600        O  0.37841527  0.65658757  0.28357724    -0.72500
O601        O  0.40759130  0.63175123  0.27016450    -0.72400
O602        O  0.39398835  0.65849367  0.21166200    -0.72500
O603        O  0.44351672  0.68787496  0.24347109    -0.72400
O604        O  0.35741575  0.60034628  0.23820227    -0.72600
V605        V  0.37177394  0.66832013  0.25441327     1.35200
V606        V  0.39984953  0.64487805  0.24107624     1.35200
C607        C  0.32798752  0.59696578  0.24456598     0.76800
C608        C  0.44389393  0.71516629  0.25118262     0.76900
C609        C  0.37777641  0.67606078  0.20898746     0.76800
C610        C  0.39655705  0.64139669  0.28685351     0.76700
O611        O  0.42746054  0.71670622  0.41675778    -0.72400
O612        O  0.33789361  0.63124198  0.41141349    -0.72600
O613        O  0.37079984  0.67949362  0.44362344    -0.72500
O614        O  0.39369082  0.66891035  0.38443852    -0.72500
O615        O  0.41868774  0.63862193  0.39576838    -0.72400
O616        O  0.39292023  0.64693485  0.45555802    -0.72500
O617        O  0.36298758  0.60075018  0.42222141    -0.72400
O618        O  0.45077738  0.68564595  0.42906761    -0.72600
V619        V  0.38299996  0.67356222  0.41429682     1.35200
V620        V  0.40606820  0.64379677  0.42550796     1.35200
C621        C  0.45461401  0.71568315  0.42381977     0.76800
C622        C  0.33563472  0.60141371  0.41570798     0.76900
C623        C  0.37665644  0.66406664  0.45958315     0.76800
C624        C  0.40931708  0.65154165  0.37990770     0.76700
C625        C  0.41509328  0.64626935  0.35638752    -0.06700
C626        C  0.39294719  0.61270944  0.34670150    -0.17900
C627        C  0.38891090  0.60902164  0.32350253     0.10500
C628        C  0.40747889  0.63952397  0.30979192    -0.06700
C629        C  0.43181175  0.67227849  0.31947698    -0.17900
C630        C  0.43582859  0.67595325  0.34251149     0.10500
S631        S  0.35690543  0.56586489  0.31265331    -0.32900
S632        S  0.46549575  0.71993333  0.35334534    -0.32900
H633        H  0.47245007  0.70813111  0.37356964     0.28500
H634        H  0.37167012  0.57140482  0.29121133     0.28500
H635        H  0.37653594  0.58989400  0.35727351     0.19100
H636        H  0.44600537  0.69586536  0.30905720     0.19100
C637        C  0.23415988  0.99497154  0.41736758    -0.06700
C638        C  0.23999598  0.52841076  0.42185893    -0.17900
C639        C  0.27001910  0.56230241  0.42265429     0.10500
C640        C  0.30226451  0.56763664  0.41345779    -0.06700
C641        C  0.30361662  0.53908323  0.40330828    -0.17900
C642        C  0.27349542  0.50506612  0.40242232     0.10500
S643        S  0.26592227  0.59666731  0.43713034    -0.32900
S644        S  0.27232192  0.96465709  0.39700785    -0.32900
H645        H  0.24286062  0.95318319  0.38271036     0.28500
H646        H  0.29925920  0.61137464  0.44766359     0.28500
H647        H  0.20748872  0.02220596  0.43105297     0.19100
H648        H  0.32845581  0.54336266  0.39602043     0.19100
C649        C  0.04864903  0.81029177  0.42893941    -0.06700
C650        C  0.04581472  0.77861051  0.43720549    -0.17900
C651        C  0.52153956  0.74906901  0.43257304     0.10500
C652        C  0.49009907  0.74872125  0.42508110    -0.06700
C653        C  0.49301449  0.78077291  0.41719119    -0.17900
C654        C  0.01715458  0.81063745  0.42278101     0.10500
S655        S  0.52172288  0.71114075  0.44509492    -0.32900
S656        S  0.01742420  0.84979726  0.41185745    -0.32900
H657        H  0.04897618  0.86173346  0.39945974     0.28500
H658        H  0.49468929  0.70512103  0.46051581     0.28500
H659        H  0.06972086  0.77846037  0.44267607     0.19100
H660        H  0.46947160  0.78131864  0.41132896     0.19100
C661        C  0.22400799  0.98799705  0.24777134    -0.06700
C662        C  0.23048496  0.52268330  0.24396559    -0.17900
C663        C  0.26025663  0.55719778  0.24430987     0.10500
C664        C  0.29493510  0.56147667  0.24339739    -0.06700
C665        C  0.29848038  0.53079503  0.24150344    -0.17900
C666        C  0.26863731  0.49638594  0.24080859     0.10500
S667        S  0.25298912  0.59507327  0.24512514    -0.32900
S668        S  0.26751390  0.95687131  0.24089148    -0.32900
H669        H  0.23828307  0.93788823  0.22660956     0.28500
H670        H  0.21591852  0.57582610  0.24905036     0.28500
H671        H  0.19288994  0.01429785  0.25127694     0.19100
H672        H  0.32479373  0.53352222  0.24050017     0.19100
C673        C  0.03817583  0.80376805  0.26052833    -0.06700
C674        C  0.00777830  0.80721423  0.25643759    -0.17900
C675        C  0.48237429  0.78176277  0.24700956     0.10500
C676        C  0.47808459  0.74839132  0.25327175    -0.06700
C677        C  0.50761756  0.74617883  0.26097442    -0.17900
C678        C  0.03323504  0.76944524  0.26517034     0.10500
S679        S  0.44658589  0.78715120  0.23577961    -0.32900
S680        S  0.06916861  0.76114917  0.27179459    -0.32900
H681        H  0.08130332  0.78543764  0.28957180     0.28500
H682        H  0.43299225  0.75655010  0.22236137     0.28500
H683        H  0.01069352  0.83327715  0.25312308     0.19100
H684        H  0.50420036  0.72054228  0.26620359     0.19100
C685        C  0.11962460  0.91931366  0.31531315    -0.06700
C686        C  0.14882724  0.94623661  0.32681446    -0.17900
C687        C  0.14967191  0.94678611  0.35014116     0.10500
C688        C  0.12125570  0.91923035  0.36243747    -0.06700
C689        C  0.09087707  0.89398339  0.35096802    -0.17900
C690        C  0.08958227  0.89408052  0.32762639     0.10500
S691        S  0.18924001  0.98139899  0.36330010    -0.32900
S692        S  0.05055101  0.85876628  0.31441381    -0.32900
H693        H  0.05351428  0.87806082  0.29489037     0.28500
H694        H  0.17166352  0.98208537  0.38281937     0.28500
H695        H  0.17215623  0.96552935  0.31759947     0.19100
H696        H  0.06907075  0.87250800  0.36011293     0.19100
C697        C  0.22089710  0.89475204  0.52345971    -0.06700
C698        C  0.19520069  0.86212672  0.51412309    -0.17900
C699        C  0.17623025  0.86088125  0.49478200     0.10500
C700        C  0.18212052  0.89299414  0.48452015    -0.06700
C701        C  0.20807841  0.92562067  0.49368315    -0.17900
C702        C  0.22745633  0.92686602  0.51281821     0.10500
S703        S  0.14439324  0.81740639  0.48424782    -0.32900
S704        S  0.25945397  0.97033455  0.52317796    -0.32900
H705        H  0.24926712  0.96165039  0.54549789     0.28500
H706        H  0.12079578  0.82765514  0.47514845     0.28500
H707        H  0.18958144  0.83724968  0.52212136     0.19100
H708        H  0.21364676  0.95047883  0.48568701     0.19100
C709        C  0.29599300  0.91731893  0.69502071    -0.06700
C710        C  0.29739965  0.88874955  0.68484160    -0.17900
C711        C  0.29758650  0.88579733  0.66161044     0.10500
C712        C  0.29650225  0.91205478  0.64806261    -0.06700
C713        C  0.29798712  0.94207812  0.65825910    -0.17900
C714        C  0.29778596  0.94499929  0.68151515     0.10500
S715        S  0.29552491  0.84614418  0.65029513    -0.32900
S716        S  0.29626823  0.98280367  0.69301593    -0.32900
H717        H  0.30962164  0.98130900  0.71405583     0.28500
H718        H  0.30930675  0.86070537  0.62924841     0.28500
H719        H  0.29531458  0.86695927  0.69505660     0.19100
H720        H  0.29663139  0.96218547  0.64803111     0.19100
C721        C  0.28346177  0.56574705  0.58775518    -0.06700
C722        C  0.25256419  0.53649873  0.59660267    -0.17900
C723        C  0.24868733  0.50241780  0.59726259     0.10500
C724        C  0.26246131  0.99024705  0.59469446    -0.06700
C725        C  0.30741983  0.52694785  0.58017880    -0.17900
C726        C  0.31164669  0.56109873  0.58005060     0.10500
S727        S  0.18709572  0.95755174  0.59810511    -0.32900
S728        S  0.35268574  0.59685738  0.56862899    -0.32900
H729        H  0.33664903  0.61326810  0.55677960     0.28500
H730        H  0.19459914  0.94292926  0.61691220     0.28500
H731        H  0.23125255  0.54032017  0.60316721     0.19100
H732        H  0.32039984  0.01824749  0.59424201     0.19100
C733        C  0.27289037  0.74552926  0.57793495    -0.06700
C734        C  0.30385347  0.77895078  0.58028515    -0.17900
C735        C  0.30232093  0.81061480  0.58108660     0.10500
C736        C  0.26884620  0.80907206  0.57910125    -0.06700
C737        C  0.23785474  0.77575056  0.57679057    -0.17900
C738        C  0.23929742  0.74398053  0.57625771     0.10500
S739        S  0.34327676  0.85225442  0.58591656    -0.32900
S740        S  0.19762977  0.70205188  0.57459206    -0.32900
H741        H  0.17485414  0.71635744  0.57163619     0.28500
H742        H  0.36585373  0.83777916  0.58913036     0.28500
H743        H  0.32947467  0.78024565  0.58171788     0.19100
H744        H  0.21228713  0.77465502  0.57557076     0.19100
C745        C  0.32383780  0.66335439  0.52061225    -0.06700
C746        C  0.35180155  0.69571742  0.51214170    -0.17900
C747        C  0.37084039  0.69662836  0.49292389     0.10500
C748        C  0.36238590  0.66445618  0.48195022    -0.06700
C749        C  0.33556453  0.63202301  0.49091532    -0.17900
C750        C  0.31598907  0.63115402  0.50979482     0.10500
S751        S  0.40628777  0.73953164  0.48352167    -0.32900
S752        S  0.28263814  0.58794819  0.52000939    -0.32900
H753        H  0.25484285  0.59596980  0.51857560     0.28500
H754        H  0.42683203  0.72655455  0.47318780     0.28500
H755        H  0.35902145  0.72049860  0.52064700     0.19100
H756        H  0.32883354  0.60716896  0.48264452     0.19100
C757        C  0.25377344  0.98486873  0.76169487    -0.06700
C758        C  0.30085000  0.52137863  0.75954198    -0.17900
C759        C  0.30580193  0.55618311  0.75997319     0.10500
C760        C  0.27561748  0.56089386  0.76062773    -0.06700
C761        C  0.24136465  0.53027459  0.76167123    -0.17900
C762        C  0.23653127  0.49567307  0.76160836     0.10500
S763        S  0.35078104  0.59389123  0.75996479    -0.32900
S764        S  0.17839965  0.95313627  0.76140984    -0.32900
H765        H  0.18464565  0.93359574  0.77784717     0.28500
H766        H  0.36883641  0.57429878  0.76116698     0.28500
H767        H  0.31134342  0.01199229  0.76239335     0.19100
H768        H  0.21784000  0.53315465  0.76243978     0.19100
C769        C  0.26425477  0.80541939  0.74618950    -0.06700
C770        C  0.23420524  0.77210934  0.74199655    -0.17900
C771        C  0.23700051  0.74118873  0.74076708     0.10500
C772        C  0.27056233  0.74355240  0.74445189    -0.06700
C773        C  0.30098806  0.77710971  0.74692210    -0.17900
C774        C  0.29839724  0.80807193  0.74733684     0.10500
S775        S  0.19759601  0.69918569  0.73406202    -0.32900
S776        S  0.33990746  0.84985108  0.74905501    -0.32900
H777        H  0.32973449  0.86744538  0.73340016     0.28500
H778        H  0.17336294  0.71203260  0.73299781     0.28500
H779        H  0.20830957  0.77016093  0.74028301     0.19100
H780        H  0.32691400  0.77921841  0.74909608     0.19100
C781        C  0.24332074  0.62954584  0.69116731    -0.06700
C782        C  0.23094872  0.65061154  0.68074846    -0.17900
C783        C  0.23160036  0.65416251  0.65745060     0.10500
C784        C  0.24472435  0.63611179  0.64428401    -0.06700
C785        C  0.25442950  0.61298146  0.65469656    -0.17900
C786        C  0.25391535  0.60955525  0.67784715     0.10500
S787        S  0.21964994  0.68539355  0.64581844    -0.32900
S788        S  0.27025504  0.58177768  0.68953931    -0.32900
H789        H  0.25166110  0.57490830  0.70981101     0.28500
H790        H  0.20987175  0.66950186  0.62478985     0.28500
H791        H  0.22363824  0.66675589  0.69082728     0.19100
H792        H  0.26481415  0.59925722  0.64475484     0.19100
C793        C  0.17042603  0.81508865  0.85560230    -0.06700
C794        C  0.19261928  0.80476991  0.84467755    -0.17900
C795        C  0.21057676  0.82159586  0.82491374     0.10500
C796        C  0.20681110  0.84979355  0.81571475    -0.06700
C797        C  0.18373582  0.85938898  0.82623609    -0.17900
C798        C  0.16562964  0.84246685  0.84599961     0.10500
S799        S  0.23756396  0.80559028  0.81194056    -0.32900
S800        S  0.13627827  0.85654348  0.85796782    -0.32900
H801        H  0.11222725  0.82326571  0.86756895     0.28500
H802        H  0.22474954  0.80551009  0.79049354     0.28500
H803        H  0.19669186  0.78396023  0.85187460     0.19100
H804        H  0.17978502  0.88024113  0.81899835     0.19100
C805        C  0.14494634  0.82528300  0.15152168    -0.06700
C806        C  0.14191326  0.85637386  0.15176135    -0.17900
C807        C  0.14112056  0.87288321  0.17170302     0.10500
C808        C  0.14272859  0.85793735  0.19235099    -0.06700
C809        C  0.14645390  0.82718514  0.19206710    -0.17900
C810        C  0.14788939  0.81105827  0.17209239     0.10500
S811        S  0.13921373  0.91358681  0.16950758    -0.32900
S812        S  0.15476785  0.77317795  0.17402131    -0.32900
H813        H  0.17756525  0.78282781  0.15541706     0.28500
H814        H  0.16473283  0.93139615  0.18621490     0.28500
H815        H  0.13998856  0.86797177  0.13619938     0.19100
H816        H  0.14819926  0.81540174  0.20759842     0.19100
C817        C  0.12259264  0.74364509  0.02842026    -0.06700
C818        C  0.09404738  0.74430100  0.01772403    -0.17900
C819        C  0.09174602  0.74430085  0.99449856     0.10500
C820        C  0.11825891  0.74278014  0.98147375    -0.06700
C821        C  0.14519272  0.73907184  0.99221165    -0.17900
C822        C  0.14782782  0.73985895  0.01555317     0.10500
S823        S  0.05624604  0.74991528  0.98286617    -0.32900
S824        S  0.18540016  0.73981299  0.02866821    -0.32900
H825        H  0.19916921  0.73265133  0.00938221     0.28500
H826        H  0.06169370  0.74530680  0.96050890     0.28500
H827        H  0.07491563  0.74780796  0.02753618     0.19100
H828        H  0.16595455  0.73871169  0.98224647     0.19100
C829        C  0.48315115  0.78122338  0.90947484    -0.06700
C830        C  0.48384052  0.74947791  0.90613112    -0.17900
C831        C  0.01179446  0.74069728  0.91408266     0.10500
C832        C  0.04460858  0.77346317  0.91400900    -0.06700
C833        C  0.04397769  0.80569648  0.91362697    -0.17900
C834        C  0.51568454  0.81359208  0.91235872     0.10500
S835        S  0.00823812  0.69718643  0.91484287    -0.32900
S836        S  0.51660080  0.85534389  0.91752453    -0.32900
H837        H  0.55384619  0.87692634  0.91970393     0.28500
H838        H  0.03267937  0.70536099  0.93224561     0.28500
H839        H  0.45902316  0.72459486  0.90388856     0.19100
H840        H  0.06897649  0.83073350  0.91345520     0.19100
C841        C  0.23041070  0.77428368  0.92375837    -0.06700
C842        C  0.22989386  0.74332548  0.91580300    -0.17900
C843        C  0.26089195  0.74103570  0.91457527     0.10500
C844        C  0.29335537  0.77025574  0.92159203    -0.06700
C845        C  0.29387165  0.80053791  0.93044856    -0.17900
C846        C  0.26270780  0.80257904  0.93210504     0.10500
S847        S  0.25734782  0.70106537  0.90263592    -0.32900
S848        S  0.26617944  0.84146427  0.94550138    -0.32900
H849        H  0.23596633  0.82148122  0.95907584     0.28500
H850        H  0.28935819  0.71874379  0.89046256     0.28500
H851        H  0.20538603  0.72102552  0.90962273     0.19100
H852        H  0.31877182  0.82265485  0.93638257     0.19100
C853        C  0.31687579  0.69438161  0.81506385    -0.06700
C854        C  0.34685301  0.69307962  0.82308070    -0.17900
C855        C  0.36497825  0.71157534  0.84230649     0.10500
C856        C  0.35331136  0.73230977  0.85393771    -0.06700
C857        C  0.32364154  0.73401580  0.84586514    -0.17900
C858        C  0.30546208  0.71549478  0.82664779     0.10500
S859        S  0.40323709  0.70820647  0.85095386    -0.32900
S860        S  0.26890934  0.72115288  0.81729193    -0.32900
H861        H  0.27917950  0.72560346  0.79483464     0.28500
H862        H  0.42152422  0.74189107  0.86116572     0.28500
H863        H  0.35647417  0.67773121  0.81414420     0.19100
H864        H  0.31434694  0.74971620  0.85470889     0.19100
C865        C  0.37535514  0.72541876  0.14655394    -0.06700
C866        C  0.37638526  0.69324011  0.14661381    -0.17900
C867        C  0.37637833  0.67601633  0.16646512     0.10500
C868        C  0.37580488  0.69129691  0.18707651    -0.06700
C869        C  0.37427569  0.72322720  0.18697372    -0.17900
C870        C  0.37384389  0.74019977  0.16713835     0.10500
S871        S  0.37600080  0.63416117  0.16424690    -0.32900
S872        S  0.37023716  0.77997234  0.16932034    -0.32900
H873        H  0.34650002  0.77137842  0.15138165     0.28500
H874        H  0.35118477  0.61738251  0.18159912     0.28500
H875        H  0.37739283  0.68136960  0.13098920     0.19100
H876        H  0.37352564  0.73531621  0.20255711     0.19100
C877        C  0.47697942  0.77236922  0.07828323    -0.06700
C878        C  0.50746046  0.80658686  0.07977601    -0.17900
C879        C  0.03362364  0.79454605  0.06998896     0.10500
C880        C  0.04184958  0.77380450  0.08449029    -0.06700
C881        C  0.01446070  0.74711712  0.09762485    -0.17900
C882        C  0.48152104  0.74233831  0.07581144     0.10500
S883        S  0.06548534  0.82732548  0.05099434    -0.32900
S884        S  0.44490897  0.69737334  0.07292543    -0.32900
H885        H  0.43155717  0.70573585  0.05387835     0.28500
H886        H  0.07924972  0.80545658  0.04395372     0.28500
H887        H  0.50467061  0.83013161  0.08123875     0.19100
H888        H  0.02017200  0.73091649  0.10890029     0.19100
C889        C  0.29402300  0.77669481  0.09123534    -0.06700
C890        C  0.26077463  0.74530108  0.09136118    -0.17900
C891        C  0.22897165  0.74634182  0.09168830     0.10500
C892        C  0.23000829  0.77977667  0.09244205    -0.06700
C893        C  0.26323070  0.81126555  0.09213902    -0.17900
C894        C  0.29523919  0.81025316  0.09144500     0.10500
S895        S  0.18832997  0.70367510  0.09023352    -0.32900
S896        S  0.33696426  0.85221089  0.08999118    -0.32900
H897        H  0.32237279  0.87495630  0.08854513     0.28500
H898        H  0.17197156  0.71476906  0.07437782     0.28500
H899        H  0.25945211  0.71956675  0.09092783     0.19100
H900        H  0.26404978  0.83673183  0.09253299     0.19100
C901        C  0.39981977  0.81032957  0.02416402    -0.06700
C902        C  0.43139309  0.81540043  0.01404981    -0.17900
C903        C  0.43467401  0.81571720  0.99083127     0.10500
C904        C  0.40589709  0.81110449  0.97740108    -0.06700
C905        C  0.37557584  0.80905366  0.98753933    -0.17900
C906        C  0.37221707  0.80853140  0.01072381     0.10500
S907        S  0.47449504  0.81816654  0.97940835    -0.32900
S908        S  0.33062839  0.80179946  0.02220138    -0.32900
H909        H  0.34442293  0.81666955  0.04310153     0.28500
H910        H  0.47192485  0.83122332  0.95849842     0.28500
H911        H  0.45236797  0.81605928  0.02424219     0.19100
H912        H  0.35317733  0.80498424  0.97736858     0.19100
O913        O  0.82473773  0.24379134  0.08195302    -0.72400
O914        O  0.91293495  0.24431290  0.07819243    -0.72600
O915        O  0.86122901  0.22273934  0.10880589    -0.72500
O916        O  0.87650111  0.26374624  0.05134579    -0.72500
O917        O  0.90439012  0.31730936  0.06515547    -0.72400
O918        O  0.88823341  0.27553290  0.12356211    -0.72500
O919        O  0.93990170  0.29761544  0.09249356    -0.72400
O920        O  0.85251337  0.29687805  0.09621555    -0.72600
V921        V  0.86923290  0.24467451  0.08041224     1.35200
V922        V  0.89553982  0.29576957  0.09417385     1.35200
C923        C  0.82391990  0.27096098  0.08914491     0.76800
C924        C  0.94142712  0.27153897  0.08443802     0.76900
C925        C  0.87282141  0.24176679  0.12598986     0.76800
C926        C  0.89402548  0.29710016  0.04829855     0.76700
O927        O  0.91988587  0.24586747  0.91960015    -0.72400
O928        O  0.82956434  0.23992954  0.92800245    -0.72600
O929        O  0.85991313  0.22211089  0.89520163    -0.72500
O930        O  0.88860290  0.26237817  0.95251533    -0.72500
O931        O  0.91021990  0.31597390  0.93882999    -0.72400
O932        O  0.87986814  0.27513744  0.88100857    -0.72500
O933        O  0.85172496  0.29363569  0.91439682    -0.72400
O934        O  0.94061141  0.29874818  0.90526752    -0.72600
V935        V  0.87501716  0.24360784  0.92353627     1.35200
V936        V  0.89539620  0.29481628  0.91007174     1.35200
C937        C  0.94591126  0.27369989  0.91124191     0.76800
C938        C  0.82561290  0.26619456  0.92266420     0.76900
C939        C  0.86364989  0.24146852  0.87849163     0.76800
C940        C  0.90323079  0.29565559  0.95559455     0.76700
O941        O  0.69029457  0.30128210  0.08242990    -0.72400
O942        O  0.60178910  0.30072603  0.08080534    -0.72600
O943        O  0.65333200  0.31929703  0.11110014    -0.72500
O944        O  0.63877109  0.28449293  0.05233403    -0.72500
O945        O  0.61413524  0.22972682  0.06446996    -0.72400
O946        O  0.62374757  0.26534577  0.12408110    -0.72500
O947        O  0.57506994  0.24528296  0.09167282    -0.72400
O948        O  0.66309277  0.24813487  0.09695818    -0.72600
V949        V  0.64571894  0.30045685  0.08199853     1.35200
V950        V  0.61968085  0.24817521  0.09414022     1.35200
C951        C  0.69142823  0.27410419  0.08948661     0.76800
C952        C  0.57314452  0.27207282  0.08520640     0.76900
C953        C  0.63942118  0.29880692  0.12764496     0.76800
C954        C  0.62368783  0.25152577  0.04825438     0.76700
O955        O  0.60849478  0.30412711  0.91849771    -0.72400
O956        O  0.69659071  0.30426859  0.92513812    -0.72600
O957        O  0.66664211  0.32361618  0.89262820    -0.72500
O958        O  0.63969385  0.28687140  0.95090718    -0.72500
O959        O  0.61218573  0.23246663  0.93837398    -0.72400
O960        O  0.64525743  0.26977425  0.87980159    -0.72500
O961        O  0.67004337  0.24919231  0.91424951    -0.72400
O962        O  0.58537818  0.25149938  0.90376597    -0.72600
V963        V  0.65236042  0.30376400  0.92147007     1.35200
V964        V  0.62856040  0.25181458  0.90919076     1.35200
C965        C  0.58149800  0.27700554  0.91044889     0.76800
C966        C  0.69772291  0.27586556  0.92161914     0.76900
C967        C  0.66196829  0.30330539  0.87644083     0.76800
C968        C  0.62175017  0.25375315  0.95468694     0.76700
O969        O  0.79934046  0.12131831  0.75427247    -0.72400
O970        O  0.79778687  0.20838800  0.74591404    -0.72600
O971        O  0.81657672  0.17942352  0.77944993    -0.72500
O972        O  0.78258574  0.15150540  0.72098591    -0.72500
O973        O  0.72755221  0.12539690  0.73262608    -0.72400
O974        O  0.76219561  0.15503171  0.79201560    -0.72500
O975        O  0.74303659  0.18181268  0.75786357    -0.72400
O976        O  0.74502644  0.09631615  0.76683094    -0.72600
V977        V  0.79804690  0.16463230  0.75049216     1.35200
V978        V  0.74554721  0.13998766  0.76220468     1.35200
C979        C  0.77188291  0.09359223  0.76149680     0.76800
C980        C  0.76930031  0.20926174  0.74977411     0.76900
C981        C  0.79560427  0.17330264  0.79559487     0.76800
C982        C  0.74968166  0.13442069  0.71666612     0.76700
O983        O  0.80001035  0.20929867  0.58763292    -0.72400
O984        O  0.80845598  0.12563737  0.59269132    -0.72600
O985        O  0.82388435  0.17512066  0.56096707    -0.72500
O986        O  0.78620724  0.15989378  0.61933383    -0.72500
O987        O  0.73202248  0.12995893  0.60664014    -0.72400
O988        O  0.77073974  0.14067277  0.54787517    -0.72500
O989        O  0.75361204  0.09408373  0.58126638    -0.72400
O990        O  0.74764268  0.17733240  0.57303985    -0.72600
V991        V  0.80363715  0.16707164  0.58985849     1.35200
V992        V  0.75205410  0.13637278  0.57737251     1.35200
C993        C  0.77186964  0.20733415  0.57967676     0.76800
C994        C  0.78175825  0.09549306  0.58822080     0.76900
C995        C  0.80425071  0.15873774  0.54465676     0.76800
C996        C  0.75308230  0.14165819  0.62307158     0.76700
O997        O  0.72607283  0.42309247  0.75280468    -0.72400
O998        O  0.73000116  0.33736993  0.74287968    -0.72600
O999        O  0.70914001  0.36368037  0.77679967    -0.72500
O1000       O  0.74456171  0.39525411  0.71883832    -0.72500
O1001       O  0.79925872  0.41900398  0.73058850    -0.72400
O1002       O  0.76307870  0.39052722  0.79000878    -0.72500
O1003       O  0.78320798  0.36343645  0.75695545    -0.72400
O1004       O  0.78084775  0.44856099  0.76418642    -0.72600
V1005       V  0.72842401  0.38039074  0.74814220     1.35200
V1006       V  0.78052909  0.40511914  0.76023190     1.35200
C1007       C  0.75340955  0.45082915  0.75998707     0.76800
C1008       C  0.75812409  0.33642598  0.74793313     0.76900
C1009       C  0.72968010  0.37085960  0.79320734     0.76800
C1010       C  0.77749268  0.41066375  0.71454787     0.76700
O1011       O  0.72846430  0.33180264  0.58373456    -0.72400
O1012       O  0.72243206  0.41628610  0.59093245    -0.72600
O1013       O  0.70774059  0.36972999  0.55754619    -0.72500
O1014       O  0.74147070  0.37858576  0.61667322    -0.72500
O1015       O  0.79645851  0.40853544  0.60504338    -0.72400
O1016       O  0.76196890  0.40432717  0.54574994    -0.72500
O1017       O  0.77785582  0.44758020  0.58061315    -0.72400
O1018       O  0.78198597  0.36386141  0.57033648    -0.72600
V1019       V  0.72600336  0.37446737  0.58686058     1.35200
V1020       V  0.77846790  0.40515835  0.57551251     1.35200
C1021       C  0.75703657  0.33376593  0.57657272     0.76800
C1022       C  0.74999569  0.44649951  0.58795221     0.76900
C1023       C  0.72865379  0.38734374  0.54182616     0.76800
C1024       C  0.77437954  0.39628801  0.62105610     0.76700
O1025       O  0.69392444  0.41872090  0.25567377    -0.73600
O1026       O  0.60326007  0.33286095  0.26070532    -0.72600
O1027       O  0.65498021  0.35952420  0.22990253    -0.72500
O1028       O  0.64162119  0.38951269  0.28648960    -0.72500
O1029       O  0.61563529  0.41651761  0.27145515    -0.72400
O1030       O  0.62982463  0.38672224  0.21410619    -0.72500
O1031       O  0.57857936  0.36050689  0.24513799    -0.72400
O1032       O  0.66733716  0.44456082  0.24018929    -0.72600
V1033       V  0.64820412  0.37582023  0.25781972     1.35200
V1034       V  0.62354964  0.40166308  0.24296013     1.35200
C1035       C  0.69574652  0.44684377  0.24754667     0.76800
C1036       C  0.57524244  0.33254079  0.25406066     0.76900
C1037       C  0.64342705  0.36659571  0.21245142     0.76800
C1038       C  0.62535919  0.40684453  0.28878334     0.76700
O1039       O  0.61111964  0.34394393  0.41417110    -0.72400
O1040       O  0.69936902  0.43216952  0.41192068    -0.72600
O1041       O  0.66761782  0.37868615  0.44160057    -0.72500
O1042       O  0.64425724  0.39684833  0.38429339    -0.72500
O1043       O  0.61417523  0.42015820  0.39849390    -0.72400
O1044       O  0.64632338  0.41014883  0.45629238    -0.72500
O1045       O  0.67139821  0.45904266  0.42371013    -0.72400
O1046       O  0.58723091  0.37111418  0.43136473    -0.72600
V1047       V  0.65502883  0.38830685  0.41328948     1.35200
V1048       V  0.63015462  0.41446581  0.42727011     1.35200
C1049       C  0.58390810  0.34290169  0.42302304     0.76800
C1050       C  0.69993312  0.46096730  0.41695809     0.76900
C1051       C  0.66272457  0.39266385  0.45864138     0.76800
C1052       C  0.62529534  0.41125964  0.38147266     0.76700
O1053       O  0.82530748  0.12723306  0.25576236    -0.72400
O1054       O  0.91256995  0.21621751  0.25879995    -0.72600
O1055       O  0.86090820  0.18425563  0.22840904    -0.72500
O1056       O  0.87696103  0.16070600  0.28632984    -0.72500
O1057       O  0.90519170  0.13495128  0.27280518    -0.72400
O1058       O  0.89018088  0.16025461  0.21422335    -0.72500
O1059       O  0.94061747  0.19013658  0.24546074    -0.72400
O1060       O  0.85444488  0.10305429  0.24149424    -0.72600
V1061       V  0.86933752  0.17149056  0.25703841     1.35200
V1062       V  0.89684661  0.14743882  0.24370151     1.35200
C1063       C  0.82526176  0.09983086  0.24814295     0.76800
C1064       C  0.94150922  0.21778416  0.25287532     0.76900
C1065       C  0.87363351  0.17747556  0.21140041     0.76800
C1066       C  0.89459449  0.14493814  0.28953955     0.76700
O1067       O  0.92784110  0.21668208  0.41930436    -0.72400
O1068       O  0.83764972  0.13133589  0.41505942    -0.72600
O1069       O  0.87164090  0.17989138  0.44679529    -0.72500
O1070       O  0.89271285  0.16849378  0.38743673    -0.72500
O1071       O  0.91846047  0.13874242  0.39843487    -0.72400
O1072       O  0.89322129  0.14671696  0.45844768    -0.72500
O1073       O  0.86294697  0.10071824  0.42517026    -0.72400
O1074       O  0.95113484  0.18568484  0.43173638    -0.72600
V1075       V  0.88304941  0.17360962  0.41739462     1.35200
V1076       V  0.90620463  0.14379129  0.42831643     1.35200
C1077       C  0.95515789  0.21567379  0.42609427     0.76800
C1078       C  0.83536047  0.10144089  0.41921053     0.76900
C1079       C  0.87700745  0.16386580  0.46259547     0.76800
C1080       C  0.90837939  0.15126972  0.38270602     0.76700
C1081       C  0.91283723  0.14528704  0.35910892    -0.06700
C1082       C  0.88603658  0.11393461  0.34917977    -0.17900
C1083       C  0.88138951  0.11151985  0.32603532     0.10500
C1084       C  0.90415409  0.14100553  0.31249450    -0.06700
C1085       C  0.93253243  0.17128580  0.32234122    -0.17900
C1086       C  0.93709602  0.17372190  0.34543749     0.10500
S1087       S  0.84362172  0.07188614  0.31504509    -0.32900
S1088       S  0.97215936  0.21510537  0.35667818    -0.32900
H1089       H  0.97545758  0.20054430  0.37689515     0.28500
H1090       H  0.85745029  0.07492256  0.29349759     0.28500
H1091       H  0.86678364  0.09230974  0.35961284     0.19100
H1092       H  0.94980235  0.19422474  0.31207810     0.19100
C1093       C  0.73263609  0.49644885  0.41604286    -0.06700
C1094       C  0.73965779  0.02813462  0.42634723    -0.17900
C1095       C  0.76976747  0.06208044  0.42709193     0.10500
C1096       C  0.80175932  0.06763151  0.41727585    -0.06700
C1097       C  0.80262056  0.03928640  0.40647597    -0.17900
C1098       C  0.77230366  0.00542455  0.40535900     0.10500
S1099       S  0.76589629  0.09630859  0.44191431    -0.32900
S1100       S  0.76839464  0.47048838  0.38876499    -0.32900
H1101       H  0.73627825  0.46000380  0.37730627     0.28500
H1102       H  0.80019574  0.11245282  0.45118634     0.28500
H1103       H  0.70756989  0.52047659  0.43537428     0.19100
H1104       H  0.82714518  0.04370849  0.39863056     0.19100
C1105       C  0.54886547  0.30982254  0.42358542    -0.06700
C1106       C  0.54781785  0.27699461  0.42572317    -0.17900
C1107       C  0.02317663  0.24876939  0.43183619     0.10500
C1108       C  0.99097131  0.24869291  0.42655646    -0.06700
C1109       C  0.99326997  0.28106519  0.41991129    -0.17900
C1110       C  0.51633208  0.31039191  0.42268818     0.10500
S1111       S  0.02468692  0.21001862  0.44162583    -0.32900
S1112       S  0.51399645  0.35057366  0.41815054    -0.32900
H1113       H  0.54088677  0.36429837  0.40174687     0.28500
H1114       H  0.00089343  0.20384270  0.45932116     0.28500
H1115       H  0.57261947  0.27630584  0.42652671     0.19100
H1116       H  0.96924907  0.28184533  0.41559567     0.19100
C1117       C  0.72904415  0.48261959  0.24735625    -0.06700
C1118       C  0.72898526  0.02490354  0.24197617    -0.17900
C1119       C  0.75844040  0.05964353  0.24305464     0.10500
C1120       C  0.79261452  0.06425942  0.24727806    -0.06700
C1121       C  0.79648267  0.03390635  0.24973592    -0.17900
C1122       C  0.76729186  0.99929713  0.24813950     0.10500
S1123       S  0.75216923  0.09753424  0.23796161    -0.32900
S1124       S  0.77281476  0.45215268  0.25603913    -0.32900
H1125       H  0.75255127  0.43270381  0.23759400     0.28500
H1126       H  0.71516251  0.07809675  0.23402493     0.28500
H1127       H  0.69919022  0.50926673  0.23946301     0.19100
H1128       H  0.82273702  0.03714368  0.25266702     0.19100
C1129       C  0.53890409  0.30112805  0.25628730    -0.06700
C1130       C  0.51008512  0.30484006  0.24840721    -0.17900
C1131       C  0.98191233  0.28333787  0.24589212     0.10500
C1132       C  0.97609986  0.25053007  0.25446745    -0.06700
C1133       C  0.00481401  0.24786963  0.26325409    -0.17900
C1134       C  0.53174158  0.26772066  0.26509050     0.10500
S1135       S  0.94731452  0.28869656  0.23270054    -0.32900
S1136       S  0.56544512  0.25945571  0.27665634    -0.32900
H1137       H  0.57729911  0.28781976  0.29184377     0.28500
H1138       H  0.93185671  0.25579557  0.22151221     0.28500
H1139       H  0.51463106  0.33015529  0.24168931     0.19100
H1140       H  0.00024780  0.22251684  0.26992762     0.19100
C1141       C  0.61763858  0.41415298  0.31151185    -0.06700
C1142       C  0.64419596  0.44413713  0.32260456    -0.17900
C1143       C  0.64430939  0.44624391  0.34587466     0.10500
C1144       C  0.61775784  0.41751724  0.35845593    -0.06700
C1145       C  0.58946452  0.38904929  0.34728041    -0.17900
C1146       C  0.58897341  0.38724977  0.32398759     0.10500
S1147       S  0.68132786  0.48431171  0.35874254    -0.32900
S1148       S  0.55318808  0.34800004  0.31123988    -0.32900
H1149       H  0.55422907  0.36485811  0.29099270     0.28500
H1150       H  0.66312920  0.48246263  0.37853613     0.28500
H1151       H  0.66642548  0.46471310  0.31324695     0.19100
H1152       H  0.56925339  0.36667668  0.35674173     0.19100
C1153       C  0.71367846  0.38937937  0.51993706    -0.06700
C1154       C  0.69402395  0.35810425  0.50750674    -0.17900
C1155       C  0.67637885  0.35811197  0.48785718     0.10500
C1156       C  0.67784517  0.39006390  0.48036702    -0.06700
C1157       C  0.69753083  0.42131515  0.49282834    -0.17900
C1158       C  0.71533191  0.42129969  0.51235300     0.10500
S1159       S  0.65156591  0.31618484  0.47348784    -0.32900
S1160       S  0.73875284  0.46258695  0.52737400    -0.32900
H1161       H  0.72183167  0.44658569  0.54750215     0.28500
H1162       H  0.62413196  0.32238025  0.46617641     0.28500
H1163       H  0.69202176  0.33331921  0.51331041     0.19100
H1164       H  0.69946603  0.44613864  0.48715905     0.19100
C1165       C  0.78864747  0.41572813  0.69099382    -0.06700
C1166       C  0.79647415  0.39062333  0.68149945    -0.17900
C1167       C  0.79472672  0.38517129  0.65840494     0.10500
C1168       C  0.78548836  0.40567170  0.64441884    -0.06700
C1169       C  0.78002301  0.43235048  0.65383387    -0.17900
C1170       C  0.78133664  0.43746773  0.67685471     0.10500
S1171       S  0.80059290  0.34912489  0.64821435    -0.32900
S1172       S  0.77030949  0.46997930  0.68734447    -0.32900
H1173       H  0.78765096  0.47514940  0.70789265     0.28500
H1174       H  0.80874044  0.36132992  0.62618663     0.28500
H1175       H  0.80087782  0.37298810  0.69223155     0.19100
H1176       H  0.77247506  0.44788590  0.64324678     0.19100
C1177       C  0.78209488  0.06201090  0.59085457    -0.06700
C1178       C  0.75224485  0.03340266  0.60106131    -0.17900
C1179       C  0.74776707  0.99908194  0.60134510     0.10500
C1180       C  0.75104589  0.48047413  0.59250491    -0.06700
C1181       C  0.80393870  0.02207457  0.58123242    -0.17900
C1182       C  0.80883624  0.05653044  0.58146368     0.10500
S1183       S  0.67585218  0.44794521  0.58861843    -0.32900
S1184       S  0.84865354  0.09153391  0.56837232    -0.32900
H1185       H  0.83230529  0.10930911  0.55856255     0.28500
H1186       H  0.67801824  0.43076397  0.60800443     0.28500
H1187       H  0.73206741  0.03788157  0.60883001     0.19100
H1188       H  0.80832707  0.50770959  0.59731685     0.19100
C1189       C  0.76728874  0.23924164  0.57828169    -0.06700
C1190       C  0.79779990  0.27318557  0.57977559    -0.17900
C1191       C  0.79545137  0.30443950  0.57904971     0.10500
C1192       C  0.76162692  0.30190717  0.57631295    -0.06700
C1193       C  0.73108968  0.26802952  0.57490420    -0.17900
C1194       C  0.73333374  0.23671391  0.57598452     0.10500
S1195       S  0.83588581  0.34692768  0.58285303    -0.32900
S1196       S  0.69215192  0.19417677  0.57574846    -0.32900
H1197       H  0.66902276  0.20728681  0.57038448     0.28500
H1198       H  0.85797205  0.33327281  0.58967418     0.28500
H1199       H  0.82371354  0.27525791  0.58162413     0.19100
H1200       H  0.70521942  0.26613121  0.57330917     0.19100
C1201       C  0.82110123  0.15971755  0.52288742    -0.06700
C1202       C  0.84819665  0.19276514  0.51465856    -0.17900
C1203       C  0.86804044  0.19489796  0.49560485     0.10500
C1204       C  0.86178852  0.16326304  0.48479511    -0.06700
C1205       C  0.83554203  0.13017775  0.49341189    -0.17900
C1206       C  0.81461984  0.12812345  0.51185389     0.10500
S1207       S  0.90131550  0.23875634  0.48605511    -0.32900
S1208       S  0.78083892  0.08433012  0.52096066    -0.32900
H1209       H  0.75309551  0.09243291  0.51945451     0.28500
H1210       H  0.92389076  0.22797752  0.47603015     0.28500
H1211       H  0.85398824  0.21713036  0.52316902     0.19100
H1212       H  0.83004813  0.10577402  0.48504913     0.19100
C1213       C  0.75496169  0.48590796  0.76298410    -0.06700
C1214       C  0.79603653  0.01957424  0.76248161    -0.17900
C1215       C  0.80029746  0.05401783  0.76329970     0.10500
C1216       C  0.76977966  0.05810243  0.76262149    -0.06700
C1217       C  0.73572917  0.02721627  0.76229435    -0.17900
C1218       C  0.73151306  0.99284572  0.76208489     0.10500
S1219       S  0.84478145  0.09209592  0.76593381    -0.32900
S1220       S  0.68035946  0.45509707  0.75597943    -0.32900
H1221       H  0.68174537  0.43428411  0.77362029     0.28500
H1222       H  0.86355849  0.07317522  0.76563988     0.28500
H1223       H  0.81141266  0.51246194  0.77044755     0.19100
H1224       H  0.71197996  0.02975107  0.76214044     0.19100
C1225       C  0.76196348  0.30458108  0.74430274    -0.06700
C1226       C  0.73118624  0.27119237  0.74176606    -0.17900
C1227       C  0.73310709  0.23968194  0.74188834     0.10500
C1228       C  0.76646665  0.24154932  0.74561685    -0.06700
C1229       C  0.79749091  0.27500352  0.74636454    -0.17900
C1230       C  0.79576914  0.30642177  0.74508505     0.10500
S1231       S  0.69289989  0.19761905  0.73658969    -0.32900
S1232       S  0.83792825  0.34769787  0.74409549    -0.32900
H1233       H  0.82646501  0.36394833  0.72829038     0.28500
H1234       H  0.66971612  0.21142672  0.73357513     0.28500
H1235       H  0.70549172  0.26972208  0.74027775     0.19100
H1236       H  0.82329438  0.27676842  0.74825752     0.19100
C1237       C  0.73877186  0.12666177  0.69318793    -0.06700
C1238       C  0.72657373  0.14748979  0.68230097    -0.17900
C1239       C  0.72751401  0.15042047  0.65898049     0.10500
C1240       C  0.74083455  0.13206092  0.64630558    -0.06700
C1241       C  0.75038823  0.10917748  0.65718172    -0.17900
C1242       C  0.74948064  0.10627353  0.68035760     0.10500
S1243       S  0.71564701  0.18126001  0.64664237    -0.32900
S1244       S  0.76547136  0.07865145  0.69273946    -0.32900
H1245       H  0.74625325  0.07207091  0.71274211     0.28500
H1246       H  0.70550274  0.16429540  0.62593061     0.28500
H1247       H  0.71914411  0.16389678  0.69202683     0.19100
H1248       H  0.76091141  0.09520932  0.64759008     0.19100
C1249       C  0.67736454  0.31905933  0.85451315    -0.06700
C1250       C  0.70591891  0.31543213  0.84640986    -0.17900
C1251       C  0.72425475  0.33298827  0.82691677     0.10500
C1252       C  0.71411633  0.35499545  0.81516318    -0.06700
C1253       C  0.68546899  0.35854482  0.82329152    -0.17900
C1254       C  0.66722039  0.34109306  0.84283279     0.10500
S1255       S  0.75947151  0.32523613  0.81747860    -0.32900
S1256       S  0.63099434  0.34766716  0.85187564    -0.32900
H1257       H  0.61105748  0.31427021  0.86245489     0.28500
H1258       H  0.74913766  0.32101906  0.79507866     0.28500
H1259       H  0.71425989  0.29904557  0.85548531     0.19100
H1260       H  0.67703860  0.37486033  0.81421447     0.19100
C1261       C  0.64092350  0.31491537  0.15006676    -0.06700
C1262       C  0.65611536  0.35245976  0.15126182    -0.17900
C1263       C  0.65776078  0.36995947  0.17121354     0.10500
C1264       C  0.64427996  0.35000627  0.19095946    -0.06700
C1265       C  0.62966802  0.31266836  0.19009803    -0.17900
C1266       C  0.62705815  0.29492738  0.16998673     0.10500
S1267       S  0.67811808  0.41798770  0.17041951    -0.32900
S1268       S  0.60465099  0.24685872  0.17095725    -0.32900
H1269       H  0.57859589  0.24297901  0.15542039     0.28500
H1270       H  0.69307751  0.42376004  0.19179138     0.28500
H1271       H  0.66679209  0.36868210  0.13644019     0.19100
H1272       H  0.61879161  0.29696559  0.20511462     0.19100
C1273       C  0.61648569  0.24014216  0.02483308    -0.06700
C1274       C  0.58994081  0.24410060  0.01388935    -0.17900
C1275       C  0.58891893  0.24557081  0.99068094     0.10500
C1276       C  0.61408657  0.24138931  0.97793767    -0.06700
C1277       C  0.63884051  0.23448639  0.98883564    -0.17900
C1278       C  0.64074740  0.23454397  0.01217801     0.10500
S1279       S  0.55750432  0.25687863  0.97856835    -0.32900
S1280       S  0.67662268  0.23169677  0.02563152    -0.32900
H1281       H  0.69211282  0.22717705  0.00622325     0.28500
H1282       H  0.55817533  0.24494981  0.95705794     0.28500
H1283       H  0.57145118  0.24877075  0.02352884     0.19100
H1284       H  0.65884787  0.23245020  0.97902701     0.19100
C1285       C  0.98154951  0.27660557  0.90874939    -0.06700
C1286       C  0.98311960  0.24489845  0.90863562    -0.17900
C1287       C  0.51353104  0.24146202  0.90883013     0.10500
C1288       C  0.54601095  0.27462206  0.90948600    -0.06700
C1289       C  0.54447155  0.30636839  0.90996781    -0.17900
C1290       C  0.01401047  0.30972289  0.90773249     0.10500
S1291       S  0.51098294  0.19839215  0.90892831    -0.32900
S1292       S  0.01591200  0.35237837  0.90823263    -0.32900
H1293       H  0.99824659  0.34657140  0.88773552     0.28500
H1294       H  0.53446790  0.20618717  0.92686717     0.28500
H1295       H  0.95866947  0.21935081  0.90942003     0.19100
H1296       H  0.56915772  0.33171827  0.91050958     0.19100
C1297       C  0.73006068  0.27275040  0.92531079    -0.06700
C1298       C  0.72844491  0.24040158  0.91919252    -0.17900
C1299       C  0.75876297  0.23670351  0.91914442     0.10500
C1300       C  0.79171238  0.26584808  0.92557501    -0.06700
C1301       C  0.79308541  0.29726991  0.93313211    -0.17900
C1302       C  0.76261983  0.30080223  0.93355162     0.10500
S1303       S  0.75399027  0.19520352  0.90907668    -0.32900
S1304       S  0.76741762  0.34154616  0.94487427    -0.32900
H1305       H  0.73694382  0.32369523  0.95854054     0.28500
H1306       H  0.78468844  0.21136662  0.89556013     0.28500
H1307       H  0.70361829  0.21803178  0.91336494     0.19100
H1308       H  0.81832846  0.31946425  0.93865747     0.19100
C1309       C  0.81079729  0.18883440  0.81766768    -0.06700
C1310       C  0.83897806  0.18471239  0.82607738    -0.17900
C1311       C  0.85722591  0.20213881  0.84553197     0.10500
C1312       C  0.84751339  0.22464083  0.85693885    -0.06700
C1313       C  0.81926741  0.22864783  0.84864893    -0.17900
C1314       C  0.80099684  0.21120935  0.82921650     0.10500
S1315       S  0.89324088  0.19530335  0.85462979    -0.32900
S1316       S  0.76657958  0.21994915  0.81947706    -0.32900
H1317       H  0.77731306  0.22409763  0.79710646     0.28500
H1318       H  0.91363404  0.22896451  0.86458621     0.28500
H1319       H  0.84719874  0.16816026  0.81722160     0.19100
H1320       H  0.81130602  0.24547461  0.85742273     0.19100
C1321       C  0.86992584  0.22428299  0.14798695    -0.06700
C1322       C  0.87327297  0.19339606  0.14864025    -0.17900
C1323       C  0.87349593  0.17687572  0.16876038     0.10500
C1324       C  0.87050249  0.19140053  0.18915499    -0.06700
C1325       C  0.86560130  0.22142943  0.18841199    -0.17900
C1326       C  0.86489958  0.23762394  0.16824024     0.10500
S1327       S  0.87690749  0.13695903  0.16708082    -0.32900
S1328       S  0.85603140  0.27425869  0.16944950    -0.32900
H1329       H  0.83526057  0.26474751  0.15001287     0.28500
H1330       H  0.85094802  0.11847312  0.18360403     0.28500
H1331       H  0.87607910  0.18204119  0.13326306     0.19100
H1332       H  0.86256980  0.23275551  0.20374746     0.19100
C1333       C  0.97592507  0.27330652  0.08262995    -0.06700
C1334       C  0.00414466  0.30310123  0.07210770    -0.17900
C1335       C  0.52936291  0.28772773  0.06740234     0.10500
C1336       C  0.53777467  0.26885493  0.08331546    -0.06700
C1337       C  0.51102825  0.24472214  0.09785564    -0.17900
C1338       C  0.98156652  0.24662550  0.09187467     0.10500
S1339       S  0.56060353  0.31769141  0.04694293    -0.32900
S1340       S  0.94734749  0.20842296  0.10663997    -0.32900
H1341       H  0.93440465  0.22820604  0.11789375     0.28500
H1342       H  0.57726065  0.29736189  0.04307303     0.28500
H1343       H  0.99947587  0.32334421  0.06468240     0.19100
H1344       H  0.51713347  0.23012954  0.11019280     0.19100
C1345       C  0.79044487  0.27252639  0.08912360    -0.06700
C1346       C  0.75790091  0.24029247  0.08957800    -0.17900
C1347       C  0.72531226  0.23979782  0.08914126     0.10500
C1348       C  0.72490418  0.27252119  0.08888961    -0.06700
C1349       C  0.75745859  0.30475875  0.08806258    -0.17900
C1350       C  0.79016408  0.30525086  0.08797973     0.10500
S1351       S  0.68569256  0.19628128  0.08813175    -0.32900
S1352       S  0.83084693  0.34799247  0.08570491    -0.32900
H1353       H  0.81481958  0.36857859  0.08030326     0.28500
H1354       H  0.66889965  0.20572521  0.07159177     0.28500
H1355       H  0.75777913  0.21509743  0.09005742     0.19100
H1356       H  0.75728706  0.32977128  0.08768702     0.19100
C1357       C  0.90400673  0.31058713  0.02531476    -0.06700
C1358       C  0.93141790  0.30676044  0.01541515    -0.17900
C1359       C  0.93447206  0.30595911  0.99227281     0.10500
C1360       C  0.90971501  0.30920931  0.97858451    -0.06700
C1361       C  0.88445167  0.31649146  0.98841433    -0.17900
C1362       C  0.88128575  0.31711796  0.01162585     0.10500
S1363       S  0.96824064  0.29718452  0.98119841    -0.32900
S1364       S  0.84523300  0.32218113  0.02273771    -0.32900
H1365       H  0.86091951  0.33474390  0.04359912     0.28500
H1366       H  0.97018753  0.31212070  0.96006980     0.28500
H1367       H  0.94873611  0.30134236  0.02578583     0.19100
H1368       H  0.86502894  0.31854732  0.97802655     0.19100
O1369       O  0.82408131  0.74228773  0.08688930    -0.72400
O1370       O  0.90931170  0.73799758  0.07890559    -0.72600
O1371       O  0.86063841  0.71835726  0.11142845    -0.72500
O1372       O  0.87227286  0.76023199  0.05442244    -0.72500
O1373       O  0.90546159  0.81334501  0.06804133    -0.72400
O1374       O  0.88921648  0.77092493  0.12633873    -0.72500
O1375       O  0.93922817  0.79002056  0.09462859    -0.72400
O1376       O  0.85535062  0.79585989  0.09988311    -0.72600
V1377       V  0.86709107  0.74073015  0.08324879     1.35200
V1378       V  0.89660423  0.79151919  0.09703213     1.35200
C1379       C  0.82544990  0.77064833  0.09388386     0.76800
C1380       C  0.93869920  0.76347450  0.08565292     0.76900
C1381       C  0.87313955  0.73709791  0.12865889     0.76800
C1382       C  0.89139665  0.79345883  0.05129342     0.76700
O1383       O  0.91700612  0.74364295  0.92362065    -0.72400
O1384       O  0.82676048  0.73851125  0.92766757    -0.72600
O1385       O  0.86020051  0.72152371  0.89651625    -0.72500
O1386       O  0.88246158  0.75961763  0.95481374    -0.72500
O1387       O  0.90774191  0.81377294  0.94158787    -0.72400
O1388       O  0.88103187  0.77509356  0.88299180    -0.72500
O1389       O  0.85121536  0.79325747  0.91546333    -0.72400
O1390       O  0.93949975  0.79650128  0.90889729    -0.72600
V1391       V  0.87222482  0.74186314  0.92538206     1.35200
V1392       V  0.89463356  0.79360761  0.91244130     1.35200
C1393       C  0.94376083  0.77114228  0.91560458     0.76800
C1394       C  0.82400826  0.76545957  0.92240939     0.76900
C1395       C  0.86510766  0.74156351  0.87995506     0.76800
C1396       C  0.89792968  0.79288429  0.95823842     0.76700
O1397       O  0.69754676  0.80936218  0.08318155    -0.72400
O1398       O  0.61035659  0.81080237  0.07742522    -0.72600
O1399       O  0.65983648  0.82993711  0.10943499    -0.72500
O1400       O  0.64830810  0.79224253  0.05126855    -0.72500
O1401       O  0.61986756  0.73795280  0.06426246    -0.72400
O1402       O  0.62895915  0.77638875  0.12312709    -0.72500
O1403       O  0.58161452  0.75640617  0.09003548    -0.72400
O1404       O  0.66785653  0.75612157  0.09755292    -0.72600
V1405       V  0.65359528  0.80958319  0.08067558     1.35200
V1406       V  0.62539667  0.75779620  0.09358292     1.35200
C1407       C  0.69710606  0.78164981  0.09072066     0.76800
C1408       C  0.58098107  0.78322091  0.08228624     0.76900
C1409       C  0.64485475  0.81005011  0.12607433     0.76800
C1410       C  0.63142940  0.75906040  0.04767040     0.76700
O1411       O  0.61083693  0.80848871  0.91836703    -0.72400
O1412       O  0.69756668  0.80606892  0.92328642    -0.72600
O1413       O  0.66762196  0.82639361  0.89148218    -0.72500
O1414       O  0.64227543  0.79001568  0.95009072    -0.72500
O1415       O  0.61221154  0.73569909  0.93763549    -0.72400
O1416       O  0.64548511  0.77237384  0.87884509    -0.72500
O1417       O  0.66925249  0.75057968  0.91317153    -0.72400
O1418       O  0.58637114  0.75623135  0.90307622    -0.72600
V1419       V  0.65401049  0.80678520  0.92050248     1.35200
V1420       V  0.62863525  0.75476970  0.90831804     1.35200
C1421       C  0.58343978  0.78212716  0.91009814     0.76800
C1422       C  0.69758777  0.77709129  0.91996517     0.76900
C1423       C  0.66268262  0.80588026  0.87533910     0.76800
C1424       C  0.62347979  0.75697245  0.95398822     0.76700
O1425       O  0.79536168  0.61837768  0.75675121    -0.72400
O1426       O  0.79634270  0.70601053  0.74596738    -0.72600
O1427       O  0.81656868  0.67922932  0.77999082    -0.72500
O1428       O  0.77678077  0.64619456  0.72302192    -0.72500
O1429       O  0.72305449  0.62484294  0.73628895    -0.72400
O1430       O  0.76335378  0.65574655  0.79433056    -0.72500
O1431       O  0.74355756  0.68302096  0.76083083    -0.72400
O1432       O  0.74137566  0.59547551  0.76975680    -0.72600
V1433       V  0.79528219  0.66199304  0.75179581     1.35200
V1434       V  0.74393323  0.64008878  0.76515826     1.35200
C1435       C  0.76744302  0.59151471  0.76428916     0.76800
C1436       C  0.76933834  0.70883411  0.75106895     0.76900
C1437       C  0.79701597  0.67410311  0.79679972     0.76800
C1438       C  0.74352127  0.63081704  0.71973645     0.76700
O1439       O  0.79098071  0.70222179  0.59123591    -0.72400
O1440       O  0.78977226  0.61357766  0.59643896    -0.72600
O1441       O  0.81044995  0.66390168  0.56480059    -0.72500
O1442       O  0.77237273  0.65171043  0.62279161    -0.72500
O1443       O  0.71815081  0.62349289  0.61006137    -0.72400
O1444       O  0.75698195  0.63618140  0.55091092    -0.72500
O1445       O  0.73622843  0.58660792  0.58284012    -0.72400
O1446       O  0.73727586  0.67399207  0.57790856    -0.72600
V1447       V  0.78986573  0.65752224  0.59347460     1.35200
V1448       V  0.73820714  0.63087030  0.58061264     1.35200
C1449       C  0.76360083  0.70291933  0.58424072     0.76800
C1450       C  0.76234292  0.58485216  0.59068484     0.76900
C1451       C  0.79059167  0.65075110  0.54810767     0.76800
C1452       C  0.73924652  0.63416080  0.62653755     0.76700
O1453       O  0.73334353  0.92641798  0.75094549    -0.72400
O1454       O  0.73531329  0.83968788  0.74225667    -0.72600
O1455       O  0.71366823  0.86665650  0.77534871    -0.72500
O1456       O  0.75306338  0.89783411  0.71792220    -0.72500
O1457       O  0.80690018  0.92184838  0.73120586    -0.72400
O1458       O  0.76685580  0.89102790  0.78959319    -0.72500
O1459       O  0.78832485  0.86479067  0.75664220    -0.72400
O1460       O  0.78686031  0.95052107  0.76449778    -0.72600
V1461       V  0.73483357  0.88322367  0.74696606     1.35200
V1462       V  0.78616628  0.90680977  0.76027885     1.35200
C1463       C  0.76024081  0.95354490  0.75904163     0.76800
C1464       C  0.76297716  0.83809021  0.74748383     0.76900
C1465       C  0.73321392  0.87233349  0.79214768     0.76800
C1466       C  0.78629496  0.91331883  0.71455254     0.76700
O1467       O  0.73457970  0.83797389  0.58636184    -0.72400
O1468       O  0.73896507  0.92825136  0.59093926    -0.72600
O1469       O  0.71754887  0.87790507  0.55919135    -0.72500
O1470       O  0.75384514  0.88817320  0.61764298    -0.72500
O1471       O  0.80825499  0.91328832  0.60495192    -0.72400
O1472       O  0.77152972  0.90643892  0.54587457    -0.72500
O1473       O  0.79362317  0.95393090  0.57898944    -0.72400
O1474       O  0.78781237  0.86465433  0.57208036    -0.72600
V1475       V  0.73718232  0.88339920  0.58814567     1.35200
V1476       V  0.78917033  0.90877895  0.57557520     1.35200
C1477       C  0.76147821  0.83633772  0.57935318     0.76800
C1478       C  0.76801886  0.95669216  0.58676600     0.76900
C1479       C  0.73805467  0.89202640  0.54271256     0.76800
C1480       C  0.78692813  0.90334115  0.62138282     0.76700
O1481       O  0.69882967  0.93128366  0.25342248    -0.73600
O1482       O  0.61081970  0.84310047  0.25669751    -0.72600
O1483       O  0.66203303  0.87512197  0.22569008    -0.72500
O1484       O  0.64781292  0.89753252  0.28438678    -0.72500
O1485       O  0.62382550  0.92800468  0.27173806    -0.72400
O1486       O  0.62956123  0.89666601  0.21281052    -0.72500
O1487       O  0.58316319  0.87120707  0.24666136    -0.72400
O1488       O  0.67092364  0.95562954  0.23771118    -0.72600
V1489       V  0.65452045  0.88737323  0.25475551     1.35200
V1490       V  0.62759042  0.91256443  0.24237658     1.35200
C1491       C  0.69974474  0.95873674  0.24500786     0.76800
C1492       C  0.58168547  0.84258188  0.25291686     0.76900
C1493       C  0.64634945  0.87982388  0.20942033     0.76800
C1494       C  0.63333879  0.91620975  0.28820034     0.76700
O1495       O  0.61989490  0.84617925  0.41514103    -0.72400
O1496       O  0.70748490  0.93489497  0.41245422    -0.72600
O1497       O  0.67635476  0.88182995  0.44250976    -0.72500
O1498       O  0.65251350  0.89889516  0.38488753    -0.72500
O1499       O  0.62375229  0.92378583  0.39881737    -0.72400
O1500       O  0.65305821  0.91156971  0.45709851    -0.72500
O1501       O  0.67975270  0.96146999  0.42512425    -0.72400
O1502       O  0.59480723  0.87344238  0.43091056    -0.72600
V1503       V  0.66345748  0.89084733  0.41406290     1.35200
V1504       V  0.63819786  0.91684603  0.42781572     1.35200
C1505       C  0.59219706  0.84516985  0.42311837     0.76800
C1506       C  0.70808856  0.96358917  0.41779248     0.76900
C1507       C  0.67044333  0.89507165  0.45955128     0.76800
C1508       C  0.63462011  0.91443837  0.38186561     0.76700
O1509       O  0.81928668  0.61678438  0.25666148    -0.72400
O1510       O  0.90504566  0.70705615  0.26228591    -0.72600
O1511       O  0.85602418  0.67537126  0.23036384    -0.72500
O1512       O  0.86809088  0.65028971  0.28873902    -0.72500
O1513       O  0.90091608  0.62880505  0.27637779    -0.72400
O1514       O  0.88505826  0.65066678  0.21679059    -0.72500
O1515       O  0.93464760  0.68322161  0.24815752    -0.72400
O1516       O  0.85081586  0.59358500  0.24490486    -0.72600
V1517       V  0.86251828  0.66175798  0.25919826     1.35200
V1518       V  0.89203145  0.63930921  0.24673733     1.35200
C1519       C  0.82072431  0.58950163  0.25023919     0.76800
C1520       C  0.93459726  0.71006053  0.25624107     0.76900
C1521       C  0.86928986  0.66862515  0.21362455     0.76800
C1522       C  0.88781124  0.63704338  0.29270752     0.76700
O1523       O  0.91804977  0.71444703  0.42376707    -0.72400
O1524       O  0.82936994  0.62791197  0.41703912    -0.72600
O1525       O  0.85999937  0.67544815  0.44962565    -0.72500
O1526       O  0.88581022  0.66683486  0.39081082    -0.72500
O1527       O  0.91053829  0.63647361  0.40244383    -0.72400
O1528       O  0.88329863  0.64435955  0.46215176    -0.72500
O1529       O  0.85461835  0.59799719  0.42869241    -0.72400
O1530       O  0.94185280  0.68377754  0.43594745    -0.72600
V1531       V  0.87395345  0.67071552  0.42057228     1.35200
V1532       V  0.89736923  0.64151004  0.43216482     1.35200
C1533       C  0.94540082  0.71379664  0.43089944     0.76800
C1534       C  0.82732145  0.59825196  0.42162508     0.76900
C1535       C  0.86567604  0.66030072  0.46582351     0.76800
C1536       C  0.90101906  0.64903822  0.38641261     0.76700
C1537       C  0.90420489  0.64107817  0.36288774    -0.06700
C1538       C  0.87478525  0.61116849  0.35346465    -0.17900
C1539       C  0.87045002  0.60723390  0.33034383     0.10500
C1540       C  0.89620745  0.63359849  0.31612185    -0.06700
C1541       C  0.92680184  0.66234316  0.32552872    -0.17900
C1542       C  0.93102197  0.66638288  0.34869277     0.10500
S1543       S  0.82988784  0.56977939  0.32001566    -0.32900
S1544       S  0.96947016  0.70594720  0.35914224    -0.32900
H1545       H  0.96976224  0.69176459  0.38016746     0.28500
H1546       H  0.84316961  0.56906778  0.29879534     0.28500
H1547       H  0.85367436  0.59197206  0.36421299     0.19100
H1548       H  0.94634584  0.68319774  0.31476949     0.19100
C1549       C  0.74055838  0.99920182  0.41613394    -0.06700
C1550       C  0.73174401  0.52473162  0.42715586    -0.17900
C1551       C  0.76203226  0.55832242  0.42890322     0.10500
C1552       C  0.79412066  0.56432897  0.41909146    -0.06700
C1553       C  0.79519595  0.53665482  0.40755805    -0.17900
C1554       C  0.76467800  0.50302879  0.40550745     0.10500
S1555       S  0.75858210  0.59154716  0.44515871    -0.32900
S1556       S  0.77604875  0.97205944  0.38953185    -0.32900
H1557       H  0.74412787  0.96126352  0.37777910     0.28500
H1558       H  0.79170626  0.60426214  0.45575360     0.28500
H1559       H  0.71558774  0.02421480  0.43454016     0.19100
H1560       H  0.81992269  0.54147810  0.39982314     0.19100
C1561       C  0.55721308  0.81220707  0.42296462    -0.06700
C1562       C  0.55462921  0.78049283  0.43091133    -0.17900
C1563       C  0.01249427  0.74753258  0.43963137     0.10500
C1564       C  0.98094804  0.74713413  0.43227414    -0.06700
C1565       C  0.98399134  0.77927630  0.42439561    -0.17900
C1566       C  0.52592465  0.81227374  0.41606624     0.10500
S1567       S  0.01250417  0.71019668  0.45316380    -0.32900
S1568       S  0.52616302  0.85122654  0.40479584    -0.32900
H1569       H  0.55886887  0.86418034  0.39361964     0.28500
H1570       H  0.98485058  0.70443470  0.46800466     0.28500
H1571       H  0.57853158  0.78053301  0.43667809     0.19100
H1572       H  0.96038748  0.77994692  0.41888103     0.19100
C1573       C  0.73273125  0.99440213  0.24467842    -0.06700
C1574       C  0.72532398  0.51286201  0.24315410    -0.17900
C1575       C  0.75446870  0.54779161  0.24383213     0.10500
C1576       C  0.78858864  0.55325529  0.24925793    -0.06700
C1577       C  0.79264265  0.52320287  0.25315379    -0.17900
C1578       C  0.76358931  0.48819135  0.25201210     0.10500
S1579       S  0.74777647  0.58485112  0.23674483    -0.32900
S1580       S  0.77649830  0.96291220  0.24979915    -0.32900
H1581       H  0.75456592  0.94448964  0.23165395     0.28500
H1582       H  0.71184941  0.56455116  0.23018830     0.28500
H1583       H  0.70270844  0.02157284  0.23918872     0.19100
H1584       H  0.81885368  0.52699210  0.25701173     0.19100
C1585       C  0.54629463  0.80985433  0.25498229    -0.06700
C1586       C  0.51615478  0.81200503  0.24812741    -0.17900
C1587       C  0.97355010  0.77744725  0.25521627     0.10500
C1588       C  0.96904423  0.74318587  0.25884631    -0.06700
C1589       C  0.99895518  0.73976309  0.26410475    -0.17900
C1590       C  0.54145776  0.77649918  0.26229384     0.10500
S1591       S  0.93750797  0.78484282  0.24711885    -0.32900
S1592       S  0.57672962  0.77049845  0.27367117    -0.32900
H1593       H  0.58802011  0.79920736  0.28855422     0.28500
H1594       H  0.92257910  0.75633973  0.23198010     0.28500
H1595       H  0.51895024  0.83724393  0.24264604     0.19100
H1596       H  0.99562896  0.71346469  0.26728022     0.19100
C1597       C  0.62696290  0.92213826  0.31161799    -0.06700
C1598       C  0.65446927  0.95064606  0.32327520    -0.17900
C1599       C  0.65499356  0.95098014  0.34663869     0.10500
C1600       C  0.62809035  0.92174980  0.35874936    -0.06700
C1601       C  0.59928866  0.89457961  0.34709566    -0.17900
C1602       C  0.59818007  0.89482493  0.32377704     0.10500
S1603       S  0.69256417  0.98769483  0.36008886    -0.32900
S1604       S  0.56104262  0.85763644  0.31034644    -0.32900
H1605       H  0.56198546  0.87685525  0.29118740     0.28500
H1606       H  0.67433092  0.98561578  0.37990693     0.28500
H1607       H  0.67682361  0.97152910  0.31419151     0.19100
H1608       H  0.57877414  0.87179584  0.35604237     0.19100
C1609       C  0.72257386  0.89326277  0.52079885    -0.06700
C1610       C  0.70168646  0.86145699  0.50904935    -0.17900
C1611       C  0.68360257  0.86099165  0.48945583     0.10500
C1612       C  0.68570718  0.89295874  0.48138924    -0.06700
C1613       C  0.70655850  0.92470051  0.49320391    -0.17900
C1614       C  0.72489330  0.92517574  0.51261406     0.10500
S1615       S  0.65760257  0.81856677  0.47580908    -0.32900
S1616       S  0.75035045  0.96723564  0.52658691    -0.32900
H1617       H  0.73441116  0.95308706  0.54727934     0.28500
H1618       H  0.63111959  0.82563992  0.46776027     0.28500
H1619       H  0.69912367  0.83664439  0.51532264     0.19100
H1620       H  0.70911642  0.94957451  0.48704462     0.19100
C1621       C  0.79923328  0.91751881  0.69140311    -0.06700
C1622       C  0.79862053  0.88764729  0.68164441    -0.17900
C1623       C  0.79842478  0.88390255  0.65849528     0.10500
C1624       C  0.79920942  0.91075261  0.64464527    -0.06700
C1625       C  0.80247633  0.94183333  0.65438783    -0.17900
C1626       C  0.80240239  0.94545234  0.67756764     0.10500
S1627       S  0.79308255  0.84256136  0.64767086    -0.32900
S1628       S  0.80260417  0.98447723  0.68844837    -0.32900
H1629       H  0.81535596  0.98292777  0.70967100     0.28500
H1630       H  0.80782853  0.85610907  0.62661373     0.28500
H1631       H  0.79526652  0.86564990  0.69212012     0.19100
H1632       H  0.80223817  0.96221905  0.64387533     0.19100
C1633       C  0.75970279  0.54958563  0.59281636    -0.06700
C1634       C  0.72546623  0.51911860  0.59130532    -0.17900
C1635       C  0.72076113  0.48472890  0.59135409     0.10500
C1636       C  0.77288854  0.99275561  0.59016248    -0.06700
C1637       C  0.78488748  0.51068846  0.59576034    -0.17900
C1638       C  0.78966914  0.54505508  0.59567912     0.10500
S1639       S  0.71003913  0.96522103  0.61660246    -0.32900
S1640       S  0.83490774  0.58149828  0.59787217    -0.32900
H1641       H  0.83309642  0.59829531  0.57822118     0.28500
H1642       H  0.73015874  0.95203963  0.62735510     0.28500
H1643       H  0.70197315  0.52198689  0.58974883     0.19100
H1644       H  0.82414557  0.01809824  0.57310920     0.19100
C1645       C  0.76231822  0.73667258  0.58335022    -0.06700
C1646       C  0.79461778  0.76909669  0.58209082    -0.17900
C1647       C  0.79534725  0.80193385  0.58085810     0.10500
C1648       C  0.76269660  0.80249506  0.58035078    -0.06700
C1649       C  0.73040783  0.77006784  0.58214375    -0.17900
C1650       C  0.72975710  0.73729885  0.58394864     0.10500
S1651       S  0.83840591  0.84253076  0.58121886    -0.32900
S1652       S  0.68714563  0.69704777  0.58820501    -0.32900
H1653       H  0.66609750  0.71347556  0.59011856     0.28500
H1654       H  0.85990953  0.82647207  0.58164064     0.28500
H1655       H  0.81945286  0.76865389  0.58211593     0.19100
H1656       H  0.70552368  0.77045145  0.58229034     0.19100
C1657       C  0.80721180  0.65171528  0.52627043    -0.06700
C1658       C  0.82427168  0.68406121  0.51440586    -0.17900
C1659       C  0.84522408  0.68825533  0.49550635     0.10500
C1660       C  0.84943045  0.65944079  0.48792813    -0.06700
C1661       C  0.83312624  0.62734875  0.50019957    -0.17900
C1662       C  0.81204171  0.62313736  0.51907352     0.10500
S1663       S  0.86727399  0.73171395  0.48239827    -0.32900
S1664       S  0.79282403  0.58089756  0.53359906    -0.32900
H1665       H  0.76124888  0.58041541  0.53993659     0.28500
H1666       H  0.89791303  0.73023411  0.47600034     0.28500
H1667       H  0.82206022  0.70660376  0.52027179     0.19100
H1668       H  0.83569355  0.60487929  0.49458752     0.19100
C1669       C  0.76202450  0.98873993  0.76141960    -0.06700
C1670       C  0.78846605  0.51589053  0.76793601    -0.17900
C1671       C  0.79321385  0.55043921  0.76928376     0.10500
C1672       C  0.76392366  0.55559918  0.76532055    -0.06700
C1673       C  0.73016816  0.52569780  0.76128039    -0.17900
C1674       C  0.72524029  0.49108414  0.76036262     0.10500
S1675       S  0.83650408  0.58737957  0.77668935    -0.32900
S1676       S  0.68653680  0.95561605  0.76348139    -0.32900
H1677       H  0.69477383  0.93632338  0.77903176     0.28500
H1678       H  0.85347343  0.56723917  0.78071467     0.28500
H1679       H  0.81959256  0.01672754  0.76237631     0.19100
H1680       H  0.70735352  0.52933760  0.75848218     0.19100
C1681       C  0.76562059  0.80562224  0.74398597    -0.06700
C1682       C  0.73405989  0.77268260  0.74220934    -0.17900
C1683       C  0.73474774  0.74059054  0.74293449     0.10500
C1684       C  0.76769127  0.74150180  0.74630117    -0.06700
C1685       C  0.79945980  0.77438013  0.74607960    -0.17900
C1686       C  0.79888088  0.80635765  0.74439256     0.10500
S1687       S  0.69338255  0.69894006  0.73925214    -0.32900
S1688       S  0.84160828  0.84687931  0.74260317    -0.32900
H1689       H  0.83007095  0.86355816  0.72715190     0.28500
H1690       H  0.67236634  0.71396923  0.73270792     0.28500
H1691       H  0.70869120  0.77199503  0.74113120     0.19100
H1692       H  0.82489681  0.77526021  0.74768475     0.19100
C1693       C  0.73022487  0.62136493  0.69672607    -0.06700
C1694       C  0.71512355  0.63997024  0.68626949    -0.17900
C1695       C  0.71346657  0.64132241  0.66293080     0.10500
C1696       C  0.72739959  0.62394459  0.64983930    -0.06700
C1697       C  0.73916755  0.60258773  0.66044244    -0.17900
C1698       C  0.74049012  0.60092622  0.68360126     0.10500
S1699       S  0.69734935  0.66891517  0.65086690    -0.32900
S1700       S  0.75841277  0.57464492  0.69549517    -0.32900
H1701       H  0.74041121  0.56831745  0.71595691     0.28500
H1702       H  0.68458330  0.64894880  0.63127943     0.28500
H1703       H  0.70738681  0.65595369  0.69620056     0.19100
H1704       H  0.74985588  0.58905854  0.65056059     0.19100
C1705       C  0.67856650  0.82128451  0.85333536    -0.06700
C1706       C  0.70573128  0.81551501  0.84504962    -0.17900
C1707       C  0.72456972  0.83248417  0.82553150     0.10500
C1708       C  0.71637795  0.85606242  0.81386468    -0.06700
C1709       C  0.68900870  0.86161691  0.82209432    -0.17900
C1710       C  0.67030851  0.84479599  0.84168932     0.10500
S1711       S  0.75799247  0.82209956  0.81602745    -0.32900
S1712       S  0.63593592  0.85411593  0.85083825    -0.32900
H1713       H  0.61441382  0.82094214  0.86134674     0.28500
H1714       H  0.74846284  0.81959517  0.79353749     0.28500
H1715       H  0.71266125  0.79798181  0.85402363     0.19100
H1716       H  0.68207144  0.87915322  0.81313848     0.19100
C1717       C  0.64503475  0.82665986  0.14797141    -0.06700
C1718       C  0.67608321  0.85816004  0.15448403    -0.17900
C1719       C  0.67704104  0.87660084  0.17399250     0.10500
C1720       C  0.64616224  0.86386923  0.18744997    -0.06700
C1721       C  0.61514750  0.83246355  0.18103083    -0.17900
C1722       C  0.61416789  0.81397288  0.16156139     0.10500
S1723       S  0.71852926  0.91620543  0.18081853    -0.32900
S1724       S  0.57222535  0.77519752  0.15455725    -0.32900
H1725       H  0.57372639  0.78466329  0.13203902     0.28500
H1726       H  0.70343397  0.93330474  0.19289840     0.28500
H1727       H  0.69987431  0.86859495  0.14424508     0.19100
H1728       H  0.59144755  0.82209070  0.19137233     0.19100
C1729       C  0.62387959  0.74662145  0.02433068    -0.06700
C1730       C  0.59412650  0.74551187  0.01399276    -0.17900
C1731       C  0.59095895  0.74480952  0.99073473     0.10500
C1732       C  0.61785227  0.74469796  0.97739036    -0.06700
C1733       C  0.64605917  0.74287873  0.98777009    -0.17900
C1734       C  0.64962315  0.74435737  0.01102991     0.10500
S1735       S  0.55411244  0.74800037  0.97910423    -0.32900
S1736       S  0.68914243  0.74742531  0.02334305    -0.32900
H1737       H  0.70243569  0.73999004  0.00394227     0.28500
H1738       H  0.55511416  0.73453106  0.95810350     0.28500
H1739       H  0.57462673  0.74802110  0.02403389     0.19100
H1740       H  0.66713812  0.74376555  0.97753854     0.19100
C1741       C  0.97898982  0.77325534  0.91419585    -0.06700
C1742       C  0.97968220  0.74109568  0.91405529    -0.17900
C1743       C  0.51579630  0.74883839  0.90618931     0.10500
C1744       C  0.54861222  0.78109729  0.90919809    -0.06700
C1745       C  0.54797685  0.81310875  0.91211320    -0.17900
C1746       C  0.01169018  0.80609759  0.91364401     0.10500
S1747       S  0.51184154  0.70538499  0.90329649    -0.32900
S1748       S  0.01326692  0.84883947  0.91400364    -0.32900
H1749       H  0.05035201  0.87052627  0.91085288     0.28500
H1750       H  0.53168604  0.70870044  0.92252719     0.28500
H1751       H  0.95485324  0.71581622  0.91424169     0.19100
H1752       H  0.57286104  0.83778155  0.91445016     0.19100
C1753       C  0.72946381  0.77335768  0.92332531    -0.06700
C1754       C  0.72783739  0.74152214  0.91604773    -0.17900
C1755       C  0.75783578  0.73734693  0.91633541     0.10500
C1756       C  0.79034306  0.76556219  0.92418249    -0.06700
C1757       C  0.79168975  0.79650529  0.93255796    -0.17900
C1758       C  0.76154279  0.80043095  0.93268579     0.10500
S1759       S  0.75309100  0.69638182  0.90522694    -0.32900
S1760       S  0.76604351  0.84023198  0.94536162    -0.32900
H1761       H  0.73464799  0.82142213  0.95814157     0.28500
H1762       H  0.78620010  0.71238871  0.89422566     0.28500
H1763       H  0.70337363  0.72005710  0.90923136     0.19100
H1764       H  0.81654396  0.81784634  0.93911693     0.19100
C1765       C  0.81372068  0.69074872  0.81841532    -0.06700
C1766       C  0.84324877  0.68825087  0.82608534    -0.17900
C1767       C  0.86115448  0.70511924  0.84579241     0.10500
C1768       C  0.84994123  0.72574216  0.85802188    -0.06700
C1769       C  0.82087159  0.72869889  0.85019263    -0.17900
C1770       C  0.80266984  0.71146071  0.83073765     0.10500
S1771       S  0.89820537  0.69954457  0.85431385    -0.32900
S1772       S  0.76631699  0.71800933  0.82214995    -0.32900
H1773       H  0.77626584  0.72331911  0.79961451     0.28500
H1774       H  0.91637678  0.73144943  0.86643677     0.28500
H1775       H  0.85238160  0.67289944  0.81667267     0.19100
H1776       H  0.81198957  0.74438940  0.85946231     0.19100
C1777       C  0.87000805  0.71913255  0.15059207    -0.06700
C1778       C  0.86950308  0.68613369  0.15088540    -0.17900
C1779       C  0.86830281  0.66845545  0.17086869     0.10500
C1780       C  0.86799407  0.68398336  0.19145279    -0.06700
C1781       C  0.86742659  0.71644656  0.19109807    -0.17900
C1782       C  0.86804432  0.73380113  0.17113937     0.10500
S1783       S  0.86598302  0.62567323  0.16885347    -0.32900
S1784       S  0.86478959  0.77378624  0.17310812    -0.32900
H1785       H  0.84172157  0.76552755  0.15482948     0.28500
H1786       H  0.84152359  0.60998682  0.18650214     0.28500
H1787       H  0.87018717  0.67392090  0.13535356     0.19100
H1788       H  0.86661701  0.72868012  0.20659451     0.19100
C1789       C  0.97210377  0.76311926  0.08338597    -0.06700
C1790       C  0.99899237  0.78944089  0.06997025    -0.17900
C1791       C  0.54177652  0.81130666  0.08011061     0.10500
C1792       C  0.54619959  0.78113156  0.07910768    -0.06700
C1793       C  0.51593199  0.74702628  0.07652550    -0.17900
C1794       C  0.97978856  0.74140188  0.09711629     0.10500
S1795       S  0.57828399  0.85613279  0.08377162    -0.32900
S1796       S  0.94771266  0.70867603  0.11610579    -0.32900
H1797       H  0.91867420  0.69552581  0.10145728     0.28500
H1798       H  0.59409808  0.85621257  0.06329243     0.28500
H1799       H  0.99296998  0.80636804  0.05954572     0.19100
H1800       H  0.51901578  0.72362368  0.07532180     0.19100
C1801       C  0.79300592  0.77442313  0.09417329    -0.06700
C1802       C  0.76025220  0.74425143  0.08882092    -0.17900
C1803       C  0.72885936  0.74588783  0.08725740     0.10500
C1804       C  0.72968516  0.77861888  0.09131345    -0.06700
C1805       C  0.76223674  0.80892274  0.09660845    -0.17900
C1806       C  0.79386221  0.80730920  0.09834090     0.10500
S1807       S  0.68917499  0.70505735  0.07943437    -0.32900
S1808       S  0.83450365  0.84771695  0.10575674    -0.32900
H1809       H  0.81932345  0.86956558  0.10941511     0.28500
H1810       H  0.67357943  0.72131849  0.06710356     0.28500
H1811       H  0.75899307  0.71897898  0.08545062     0.19100
H1812       H  0.76266418  0.83383589  0.09975895     0.19100
C1813       C  0.89700015  0.80714200  0.02820657    -0.06700
C1814       C  0.92961458  0.81652943  0.01763123    -0.17900
C1815       C  0.93206888  0.81617427  0.99431307     0.10500
C1816       C  0.90118563  0.80576681  0.98134445    -0.06700
C1817       C  0.86965334  0.79990722  0.99188818    -0.17900
C1818       C  0.86739400  0.80090901  0.01506442     0.10500
S1819       S  0.97408908  0.82533033  0.98226988    -0.32900
S1820       S  0.82505108  0.79087719  0.02712207    -0.32900
H1821       H  0.83924634  0.80861339  0.04730576     0.28500
H1822       H  0.96856310  0.83662502  0.96146631     0.28500
H1823       H  0.95243122  0.82110668  0.02755881     0.19100
H1824       H  0.84587812  0.79218629  0.98207317     0.19100
loop_ 
_geom_bond_atom_site_label_1 
_geom_bond_atom_site_label_2 
_geom_bond_distance 
_geom_bond_site_symmetry_2 
_ccdc_geom_bond_type 
O1            V9   1.898       .  S
O1           C11   1.267       .  A
O2            V9   1.897       .  S
O2           C12   1.263       .  A
O3            V9   1.895       .  S
O3           C13   1.263       .  A
O4            V9   1.888       .  S
O4           C14   1.261       .  A
O5           V10   1.918       .  S
O5           C14   1.268       .  A
O6           V10   1.918       .  S
O6           C13   1.270       .  A
O7           V10   1.875       .  S
O7           C12   1.257       .  A
O8           V10   1.886       .  S
O8           C11   1.259       .  A
V9           V10   2.088       .  T
C11         C433   1.478       .  S
C12         C421   1.450       .  S
C13         C409   1.492       .  S
C14         C445   1.473       .  S
O15          V23   1.902       .  S
O15          C25   1.267       .  A
O16          V23   1.902       .  S
O16          C26   1.265       .  A
O17          V23   1.901       .  S
O17          C27   1.263       .  A
O18          V23   1.892       .  S
O18          C28   1.262       .  A
O19          V24   1.915       .  S
O19          C28   1.267       .  A
O20          V24   1.918       .  S
O20          C27   1.269       .  A
O21          V24   1.876       .  S
O21          C26   1.258       .  A
O22          V24   1.890       .  S
O22          C25   1.261       .  A
V23          V24   2.087       .  T
C25         C373   1.482       .  S
C26         C388   1.461       .  S
C27         C400   1.484       .  S
C28         C448   1.474       .  S
O29          V37   1.912       .  S
O29          C39   1.270       .  A
O30          V37   1.909       .  S
O30          C40   1.268       .  A
O31          V37   1.891       .  S
O31          C41   1.262       .  A
O32          V37   1.885       .  S
O32          C42   1.259       .  A
O33          V38   1.927       .  S
O33          C42   1.271       .  A
O34          V38   1.926       .  S
O34          C41   1.272       .  A
O35          V38   1.863       .  S
O35          C40   1.257       .  A
O36          V38   1.872       .  S
O36          C39   1.256       .  A
V37          V38   2.082       .  T
C39         C436   1.478       .  S
C40         C424   1.475       .  S
C41         C349   1.496       .  S
C42         C361   1.479       .  S
O43          V51   1.910       .  S
O43          C53   1.269       .  A
O44          V51   1.910       .  S
O44          C54   1.268       .  A
O45          V51   1.898       .  S
O45          C55   1.262       .  A
O46          V51   1.890       .  S
O46          C56   1.260       .  A
O47          V52   1.923       .  S
O47          C56   1.269       .  A
O48          V52   1.925       .  S
O48          C55   1.271       .  A
O49          V52   1.869       .  S
O49          C54   1.258       .  A
O50          V52   1.884       .  S
O50          C53   1.259       .  A
V51          V52   2.084       .  T
C53         C376   1.484       .  S
C54         C385   1.479       .  S
C55         C337   1.488       .  S
C56         C364   1.478       .  S
O57          V65   1.903       .  S
O57          C67   1.266       .  A
O58          V65   1.904       .  S
O58          C68   1.267       .  A
O59          V65   1.899       .  S
O59          C69   1.262       .  A
O60          V65   1.886       .  S
O60          C70   1.260       .  A
O61          V66   1.919       .  S
O61          C70   1.268       .  A
O62          V66   1.923       .  S
O62          C69   1.271       .  A
O63          V66   1.878       .  S
O63          C68   1.258       .  A
O64          V66   1.895       .  S
O64          C67   1.263       .  A
V65          V66   2.086       .  T
C67         C304   1.488       .  S
C68         C316   1.474       .  S
C69         C397   1.492       .  S
C70         C325   1.473       .  S
O71          V79   1.904       .  S
O71          C81   1.267       .  A
O72          V79   1.897       .  S
O72          C82   1.264       .  A
O73          V79   1.899       .  S
O73          C83   1.262       .  A
O74          V79   1.891       .  S
O74          C84   1.261       .  A
O75          V80   1.917       .  S
O75          C84   1.268       .  A
O76          V80   1.917       .  S
O76          C83   1.269       .  A
O77          V80   1.873       .  S
O77          C82   1.258       .  A
O78          V80   1.885       .  S
O78          C81   1.260       .  A
V79          V80   2.087       .  T
C81         C277   1.482       .  S
C82         C265   1.466       .  S
C83         C289   1.483       .  S
C84         C328   1.476       .  S
O85          V93   1.912       .  S
O85          C95   1.269       .  A
O86          V93   1.910       .  S
O86          C96   1.269       .  A
O87          V93   1.899       .  S
O87          C97   1.262       .  A
O88          V93   1.890       .  S
O88          C98   1.260       .  A
O89          V94   1.924       .  S
O89          C98   1.270       .  A
O90          V94   1.926       .  S
O90          C97   1.271       .  A
O91          V94   1.872       .  S
O91          C96   1.257       .  A
O92          V94   1.891       .  S
O92          C95   1.262       .  A
V93          V94   2.086       .  T
C95         C301   1.489       .  S
C96         C313   1.474       .  S
C97         C340   1.491       .  S
C98         C253   1.480       .  S
O99         V107   1.905       .  S
O99         C109   1.269       .  A
O100        V107   1.906       .  S
O100        C110   1.267       .  A
O101        V107   1.899       .  S
O101        C111   1.262       .  A
O102        V107   1.889       .  S
O102        C112   1.260       .  A
O103        V108   1.926       .  S
O103        C112   1.270       .  A
O104        V108   1.932       .  S
O104        C111   1.273       .  A
O105        V108   1.866       .  S
O105        C110   1.257       .  A
O106        V108   1.885       .  S
O106        C109   1.259       .  A
V107        V108   2.084       .  T
C109        C280   1.484       .  S
C110        C268   1.476       .  S
C111        C241   1.496       .  S
C112        C256   1.480       .  S
O113        V121   1.915       .  S
O113        C123   1.269       .  A
O114        V121   1.908       .  S
O114        C124   1.267       .  A
O115        V121   1.895       .  S
O115        C125   1.262       .  A
O116        V121   1.889       .  S
O116        C126   1.260       .  A
O117        V122   1.926       .  S
O117        C126   1.270       .  A
O118        V122   1.924       .  S
O118        C125   1.272       .  A
O119        V122   1.870       .  S
O119        C124   1.258       .  A
O120        V122   1.880       .  S
O120        C123   1.260       .  A
V121        V122   2.084       .  T
C123        C205   1.483       .  S
C124        C217   1.481       .  S
C125        C352   1.496       .  S
C126        C229   1.481       .  S
O127        V135   1.911       .  S
O127        C137   1.268       .  A
O128        V135   1.906       .  S
O128        C138   1.266       .  A
O129        V135   1.902       .  S
O129        C139   1.263       .  A
O130        V135   1.898       .  S
O130        C140   1.263       .  A
O131        V136   1.924       .  S
O131        C140   1.269       .  A
O132        V136   1.926       .  S
O132        C139   1.271       .  A
O133        V136   1.869       .  S
O133        C138   1.258       .  A
O134        V136   1.887       .  S
O134        C137   1.260       .  A
V135        V136   2.084       .  T
C137        C193   1.477       .  S
C138        C181   1.478       .  S
C139        C244   1.492       .  S
C140        C232   1.484       .  S
O141        V149   1.910       .  S
O141        C151   1.268       .  A
O142        V149   1.905       .  S
O142        C152   1.267       .  A
O143        V149   1.895       .  S
O143        C153   1.262       .  A
O144        V149   1.887       .  S
O144        C154   1.260       .  A
O145        V150   1.916       .  S
O145        C154   1.268       .  A
O146        V150   1.918       .  S
O146        C153   1.270       .  A
O147        V150   1.872       .  S
O147        C152   1.257       .  A
O148        V150   1.880       .  S
O148        C151   1.260       .  A
V149        V150   2.087       .  T
C151        C208   1.485       .  S
C152        C220   1.461       .  S
C153        C412   1.492       .  S
C154        C172   1.473       .  S
O155        V163   1.902       .  S
O155        C165   1.267       .  A
O156        V163   1.902       .  S
O156        C166   1.266       .  A
O157        V163   1.893       .  S
O157        C167   1.261       .  A
O158        V163   1.888       .  S
O158        C168   1.260       .  A
O159        V164   1.916       .  S
O159        C168   1.267       .  A
O160        V164   1.919       .  S
O160        C167   1.270       .  A
O161        V164   1.873       .  S
O161        C166   1.257       .  A
O162        V164   1.886       .  S
O162        C165   1.259       .  A
V163        V164   2.087       .  T
C165        C196   1.484       .  S
C166        C184   1.462       .  S
C167        C292   1.484       .  S
C168        C169   1.473       .  S
C169        C170   1.406       .  A
C169        C174   1.410       .  A
C170        C171   1.406       .  A
C170        H179   1.085       .  S
C171        C172   1.412       .  A
C171        S175   1.804       .  S
C172        C173   1.404       .  A
C173        C174   1.398       .  A
C173        H180   1.085       .  S
C174        S176   1.805       .  S
S175        H178   1.404       .  S
S176        H177   1.406       .  S
C181        C638   1.411       .  A
C181        C642   1.414       .  A
C182        C183   1.390       .  A
C182        C637   1.411   1_545  A
C182        H647   1.084       .  S
C183        C184   1.404       .  A
C183        S187   1.804       .  S
C184        C185   1.404       .  A
C185        C186   1.395   1_545  A
C185        H192   1.085       .  S
C186        C637   1.413       .  A
C186        S644   1.800       .  S
S187        H190   1.407       .  S
S188        C642   1.801       .  S
S188        H189   1.407       .  S
H191        C638   1.083       .  S
C193        C194   1.399       .  A
C193        C198   1.414       .  A
C194       C1107   1.402       .  A
C194        H203   1.085       .  S
C195        C196   1.421       .  A
C195       C1106   1.397       .  A
C195        S199   1.800       .  S
C196        C197   1.403       .  A
C197       C1110   1.395       .  A
C197        H204   1.085       .  S
C198       C1109   1.397   1_455  A
C198        S200   1.804       .  S
S199        H202   1.408       .  S
S200        H201   1.405       .  S
C205        C662   1.408       .  A
C205        C666   1.410       .  A
C206        C207   1.402       .  A
C206        C661   1.408   1_545  A
C206        H671   1.084       .  S
C207        C208   1.413       .  A
C207        S211   1.809       .  S
C208        C209   1.411       .  A
C209        C210   1.397   1_545  A
C209        H216   1.085       .  S
C210        C661   1.408       .  A
C210        S668   1.802       .  S
S211        H214   1.407       .  S
S212        C666   1.802       .  S
S212        H213   1.408       .  S
H215        C662   1.082       .  S
C217        C218   1.412       .  A
C217        C222   1.414       .  A
C218       C1131   1.392   1_455  A
C218        H227   1.083       .  S
C219        C220   1.403       .  A
C219       C1130   1.392       .  A
C219        S223   1.803       .  S
C220        C221   1.403       .  A
C221       C1134   1.396       .  A
C221        H228   1.086       .  S
C222       C1133   1.396       .  A
C222        S224   1.800       .  S
S223        H226   1.406       .  S
S224        H225   1.408       .  S
C229        C230   1.402       .  A
C229        C234   1.415       .  A
C230        C231   1.404       .  A
C230        H239   1.083       .  S
C231        C232   1.415       .  A
C231        S235   1.801       .  S
C232        C233   1.403       .  A
C233        C234   1.407       .  A
C233        H240   1.082       .  S
C234        S236   1.803       .  S
S235        H238   1.406       .  S
S236        H237   1.406       .  S
C241        C242   1.407       .  A
C241        C246   1.417       .  A
C242        C243   1.409       .  A
C242        H251   1.084       .  S
C243        C244   1.415       .  A
C243        S247   1.804       .  S
C244        C245   1.406       .  A
C245        C246   1.409       .  A
C245        H252   1.084       .  S
C246        S248   1.801       .  S
S247        H250   1.406       .  S
S248        H249   1.403       .  S
C253        C254   1.406       .  A
C253        C258   1.411       .  A
C254        C255   1.404       .  A
C254        H263   1.085       .  S
C255        C256   1.411       .  A
C255        S259   1.804       .  S
C256        C257   1.407       .  A
C257        C258   1.406       .  A
C257        H264   1.086       .  S
C258        S260   1.804       .  S
S259        H262   1.406       .  S
S260        H261   1.406       .  S
C265        C266   1.407       .  A
C265        C270   1.408       .  A
C266        C267   1.393   1_545  A
C266        H275   1.084       .  S
C267        C724   1.409       .  A
C267        S727   1.800       .  S
C268        C723   1.412       .  A
C268        C725   1.411       .  A
C269        C270   1.389       .  A
C269        C724   1.408   1_545  A
C269        H732   1.083       .  S
C270        S272   1.803       .  S
S271        C723   1.801       .  S
S271        H274   1.408       .  S
S272        H273   1.407       .  S
H276        C725   1.084       .  S
C277        C278   1.402       .  A
C277        C282   1.418       .  A
C278        C279   1.402       .  A
C278        H287   1.083       .  S
C279        C280   1.420       .  A
C279        S283   1.811       .  S
C280        C281   1.401       .  A
C281        C282   1.400       .  A
C281        H288   1.083       .  S
C282        S284   1.810       .  S
S283        H286   1.407       .  S
S284        H285   1.406       .  S
C289        C290   1.403       .  A
C289        C294   1.417       .  A
C290        C291   1.404       .  A
C290        H299   1.084       .  S
C291        C292   1.415       .  A
C291        S295   1.804       .  S
C292        C293   1.404       .  A
C293        C294   1.405       .  A
C293        H300   1.085       .  S
C294        S296   1.803       .  S
S295        H298   1.407       .  S
S296        H297   1.403       .  S
C301        C758   1.409       .  A
C301        C762   1.411       .  A
C302        C303   1.401       .  A
C302        C757   1.409   1_545  A
C302        H767   1.082       .  S
C303        C304   1.413       .  A
C303        S307   1.809       .  S
C304        C305   1.410       .  A
C305        C306   1.402   1_545  A
C305        H312   1.083       .  S
C306        C757   1.413       .  A
C306        S764   1.801       .  S
S307        H310   1.407       .  S
S308        C762   1.802       .  S
S308        H309   1.408       .  S
H311        C758   1.081       .  S
C313        C314   1.400       .  A
C313        C318   1.418       .  A
C314        C315   1.400       .  A
C314        H323   1.082       .  S
C315        C316   1.418       .  A
C315        S319   1.809       .  S
C316        C317   1.399       .  A
C317        C318   1.393       .  A
C317        H324   1.083       .  S
C318        S320   1.805       .  S
S319        H322   1.407       .  S
S320        H321   1.406       .  S
C325        C326   1.406       .  A
C325        C330   1.409       .  A
C326        C327   1.406       .  A
C326        H335   1.084       .  S
C327        C328   1.412       .  A
C327        S331   1.803       .  S
C328        C329   1.404       .  A
C329        C330   1.399       .  A
C329        H336   1.084       .  S
C330        S332   1.805       .  S
S331        H334   1.404       .  S
S332        H333   1.407       .  S
C337        C338   1.405       .  A
C337        C342   1.414       .  A
C338        C339   1.408       .  A
C338        H347   1.083       .  S
C339        C340   1.417       .  A
C339        S343   1.802       .  S
C340        C341   1.405       .  A
C341        C342   1.406       .  A
C341        H348   1.084       .  S
C342        S344   1.804       .  S
S343        H346   1.404       .  S
S344        H345   1.407       .  S
C349        C350   1.411       .  A
C349        C354   1.413       .  A
C350        C351   1.404       .  A
C350        H359   1.083       .  S
C351        C352   1.412       .  A
C351        S355   1.802       .  S
C352        C353   1.412       .  A
C353        C354   1.407       .  A
C353        H360   1.083       .  S
C354        S356   1.802       .  S
S355        H358   1.407       .  S
S356        H357   1.407       .  S
C361        C362   1.404       .  A
C361        C366   1.409       .  A
C362        C363   1.400   1_554  A
C362        H371   1.084       .  S
C363        C364   1.412       .  A
C363        S367   1.805       .  S
C364        C365   1.407       .  A
C365        C366   1.411   1_556  A
C365        H372   1.082       .  S
C366        S368   1.804       .  S
S367        H370   1.401       .  S
S368        H369   1.407       .  S
C373        C374   1.401       .  A
C373        C378   1.418       .  A
C374       C1287   1.396       .  A
C374        H383   1.085       .  S
C375        C376   1.420       .  A
C375       C1286   1.396   1_455  A
C375        S379   1.805       .  S
C376        C377   1.403       .  A
C377       C1290   1.401       .  A
C377        H384   1.082       .  S
C378       C1289   1.403       .  A
C378        S380   1.810       .  S
S379        H382   1.405       .  S
S380        H381   1.406       .  S
C385        C386   1.410       .  A
C385        C390   1.413       .  A
C386        C387   1.391       .  A
C386        H395   1.083       .  S
C387        C388   1.406       .  A
C387        S391   1.804       .  S
C388        C389   1.404       .  A
C389        C390   1.396       .  A
C389        H396   1.084       .  S
C390        S392   1.801       .  S
S391        H394   1.403       .  S
S392        H393   1.408       .  S
C397        C398   1.408       .  A
C397        C402   1.416       .  A
C398        C399   1.407       .  A
C398        H407   1.084       .  S
C399        C400   1.412       .  A
C399        S403   1.804       .  S
C400        C401   1.404       .  A
C401        C402   1.405       .  A
C401        H408   1.084       .  S
C402        S404   1.802       .  S
S403        H406   1.406       .  S
S404        H405   1.406       .  S
C409        C410   1.409       .  A
C409        C414   1.413       .  A
C410        C411   1.403       .  A
C410        H419   1.084       .  S
C411        C412   1.412       .  A
C411        S415   1.802       .  S
C412        C413   1.410       .  A
C413        C414   1.404       .  A
C413        H420   1.083       .  S
C414        S416   1.802       .  S
S415        H418   1.408       .  S
S416        H417   1.408       .  S
C421        C422   1.401       .  A
C421        C426   1.404       .  A
C422       C1335   1.395       .  A
C422        H431   1.086       .  S
C423        C424   1.413       .  A
C423       C1334   1.398       .  A
C423        S427   1.801       .  S
C424        C425   1.410       .  A
C425       C1338   1.387   1_455  A
C425        H432   1.082       .  S
C426       C1337   1.389       .  A
C426        S428   1.802       .  S
S427        H430   1.408       .  S
S428        H429   1.404       .  S
C433        C434   1.399       .  A
C433        C438   1.418       .  A
C434        C435   1.392       .  A
C434        H443   1.083       .  S
C435        C436   1.420       .  A
C435        S439   1.805       .  S
C436        C437   1.402       .  A
C437        C438   1.403       .  A
C437        H444   1.081       .  S
C438        S440   1.810       .  S
S439        H442   1.406       .  S
S440        H441   1.406       .  S
C445        C446   1.405       .  A
C445        C450   1.410       .  A
C446        C447   1.405   1_554  A
C446        H455   1.083       .  S
C447        C448   1.411       .  A
C447        S451   1.803       .  S
C448        C449   1.404       .  A
C449        C450   1.400   1_556  A
C449        H456   1.084       .  S
C450        S452   1.805       .  S
S451        H454   1.405       .  S
S452        H453   1.406       .  S
O457        V465   1.909       .  S
O457        C467   1.269       .  A
O458        V465   1.907       .  S
O458        C468   1.266       .  A
O459        V465   1.894       .  S
O459        C469   1.262       .  A
O460        V465   1.888       .  S
O460        C470   1.260       .  A
O461        V466   1.918       .  S
O461        C470   1.268       .  A
O462        V466   1.917       .  S
O462        C469   1.270       .  A
O463        V466   1.867       .  S
O463        C468   1.258       .  A
O464        V466   1.880       .  S
O464        C467   1.257       .  A
V465        V466   2.085       .  T
C467        C889   1.482       .  S
C468        C877   1.475       .  S
C469        C865   1.490       .  S
C470        C901   1.474       .  S
O471        V479   1.894       .  S
O471        C481   1.265       .  A
O472        V479   1.894       .  S
O472        C482   1.264       .  A
O473        V479   1.898       .  S
O473        C483   1.262       .  A
O474        V479   1.892       .  S
O474        C484   1.261       .  A
O475        V480   1.918       .  S
O475        C484   1.268       .  A
O476        V480   1.921       .  S
O476        C483   1.270       .  A
O477        V480   1.877       .  S
O477        C482   1.259       .  A
O478        V480   1.893       .  S
O478        C481   1.261       .  A
V479        V480   2.088       .  T
C481        C829   1.475       .  S
C482        C844   1.457       .  S
C483        C856   1.484       .  S
C484        C904   1.476       .  S
O485        V493   1.913       .  S
O485        C495   1.270       .  A
O486        V493   1.909       .  S
O486        C496   1.267       .  A
O487        V493   1.899       .  S
O487        C497   1.263       .  A
O488        V493   1.889       .  S
O488        C498   1.260       .  A
O489        V494   1.926       .  S
O489        C498   1.270       .  A
O490        V494   1.925       .  S
O490        C497   1.272       .  A
O491        V494   1.868       .  S
O491        C496   1.258       .  A
O492        V494   1.876       .  S
O492        C495   1.257       .  A
V493        V494   2.084       .  T
C495        C892   1.480       .  S
C496        C880   1.474       .  S
C497        C805   1.498       .  S
C498        C817   1.479       .  S
O499        V507   1.900       .  S
O499        C509   1.267       .  A
O500        V507   1.900       .  S
O500        C510   1.265       .  A
O501        V507   1.897       .  S
O501        C511   1.262       .  A
O502        V507   1.893       .  S
O502        C512   1.261       .  A
O503        V508   1.922       .  S
O503        C512   1.269       .  A
O504        V508   1.921       .  S
O504        C511   1.270       .  A
O505        V508   1.872       .  S
O505        C510   1.259       .  A
O506        V508   1.884       .  S
O506        C509   1.259       .  A
V507        V508   2.084       .  T
C509        C832   1.478       .  S
C510        C841   1.475       .  S
C511        C793   1.487       .  S
C512        C820   1.479       .  S
O513        V521   1.913       .  S
O513        C523   1.269       .  A
O514        V521   1.911       .  S
O514        C524   1.269       .  A
O515        V521   1.895       .  S
O515        C525   1.261       .  A
O516        V521   1.887       .  S
O516        C526   1.260       .  A
O517        V522   1.924       .  S
O517        C526   1.270       .  A
O518        V522   1.927       .  S
O518        C525   1.272       .  A
O519        V522   1.870       .  S
O519        C524   1.256       .  A
O520        V522   1.889       .  S
O520        C523   1.262       .  A
V521        V522   2.085       .  T
C523        C760   1.492       .  S
C524        C772   1.472       .  S
C525        C853   1.492       .  S
C526        C781   1.479       .  S
O527        V535   1.904       .  S
O527        C537   1.268       .  A
O528        V535   1.901       .  S
O528        C538   1.265       .  A
O529        V535   1.899       .  S
O529        C539   1.262       .  A
O530        V535   1.890       .  S
O530        C540   1.261       .  A
O531        V536   1.921       .  S
O531        C540   1.269       .  A
O532        V536   1.921       .  S
O532        C539   1.270       .  A
O533        V536   1.872       .  S
O533        C538   1.257       .  A
O534        V536   1.887       .  S
O534        C537   1.260       .  A
V535        V536   2.085       .  T
C537        C733   1.485       .  S
C538        C721   1.459       .  S
C539        C745   1.491       .  S
C540        C784   1.480       .  S
O541        V549   1.915       .  S
O541        C551   1.269       .  A
O542        V549   1.911       .  S
O542        C552   1.270       .  A
O543        V549   1.902       .  S
O543        C553   1.262       .  A
O544        V549   1.889       .  S
O544        C554   1.260       .  A
O545        V550   1.925       .  S
O545        C554   1.270       .  A
O546        V550   1.923       .  S
O546        C553   1.270       .  A
O547        V550   1.870       .  S
O547        C552   1.255       .  A
O548        V550   1.883       .  S
O548        C551   1.261       .  A
V549        V550   2.085       .  T
C551        C757   1.489       .  S
C552        C769   1.476       .  S
C553        C796   1.488       .  S
C554        C709   1.480       .  S
O555        V563   1.906       .  S
O555        C565   1.268       .  A
O556        V563   1.904       .  S
O556        C566   1.265       .  A
O557        V563   1.904       .  S
O557        C567   1.264       .  A
O558        V563   1.896       .  S
O558        C568   1.262       .  A
O559        V564   1.925       .  S
O559        C568   1.270       .  A
O560        V564   1.930       .  S
O560        C567   1.272       .  A
O561        V564   1.865       .  S
O561        C566   1.258       .  A
O562        V564   1.884       .  S
O562        C565   1.259       .  A
V563        V564   2.085       .  T
C565        C736   1.480       .  S
C566        C724   1.472       .  S
C567        C697   1.498       .  S
C568        C712   1.484       .  S
O569        V577   1.913       .  S
O569        C579   1.269       .  A
O570        V577   1.910       .  S
O570        C580   1.268       .  A
O571        V577   1.899       .  S
O571        C581   1.263       .  A
O572        V577   1.891       .  S
O572        C582   1.261       .  A
O573        V578   1.926       .  S
O573        C582   1.270       .  A
O574        V578   1.926       .  S
O574        C581   1.272       .  A
O575        V578   1.873       .  S
O575        C580   1.258       .  A
O576        V578   1.878       .  S
O576        C579   1.259       .  A
V577        V578   2.084       .  T
C579        C661   1.479       .  S
C580        C673   1.483       .  S
C581        C808   1.502       .  S
C582        C685   1.482       .  S
O583        V591   1.914       .  S
O583        C593   1.269       .  A
O584        V591   1.908       .  S
O584        C594   1.267       .  A
O585        V591   1.902       .  S
O585        C595   1.263       .  A
O586        V591   1.896       .  S
O586        C596   1.262       .  A
O587        V592   1.927       .  S
O587        C596   1.270       .  A
O588        V592   1.928       .  S
O588        C595   1.272       .  A
O589        V592   1.868       .  S
O589        C594   1.258       .  A
O590        V592   1.888       .  S
O590        C593   1.260       .  A
V591        V592   2.084       .  T
C593        C649   1.479       .  S
C594        C637   1.480       .  S
C595        C700   1.495       .  S
C596        C688   1.485       .  S
O597        V605   1.904       .  S
O597        C607   1.266       .  A
O598        V605   1.901       .  S
O598        C608   1.265       .  A
O599        V605   1.892       .  S
O599        C609   1.262       .  A
O600        V605   1.886       .  S
O600        C610   1.260       .  A
O601        V606   1.918       .  S
O601        C610   1.268       .  A
O602        V606   1.919       .  S
O602        C609   1.270       .  A
O603        V606   1.880       .  S
O603        C608   1.259       .  A
O604        V606   1.890       .  S
O604        C607   1.262       .  A
V605        V606   2.086       .  T
C607        C664   1.487       .  S
C608        C676   1.464       .  S
C609        C868   1.492       .  S
C610        C628   1.474       .  S
O611        V619   1.901       .  S
O611        C621   1.267       .  A
O612        V619   1.902       .  S
O612        C622   1.266       .  A
O613        V619   1.896       .  S
O613        C623   1.262       .  A
O614        V619   1.891       .  S
O614        C624   1.262       .  A
O615        V620   1.917       .  S
O615        C624   1.267       .  A
O616        V620   1.921       .  S
O616        C623   1.270       .  A
O617        V620   1.873       .  S
O617        C622   1.257       .  A
O618        V620   1.888       .  S
O618        C621   1.260       .  A
V619        V620   2.087       .  T
C621        C652   1.487       .  S
C622        C640   1.459       .  S
C623        C748   1.483       .  S
C624        C625   1.475       .  S
C625        C626   1.407       .  A
C625        C630   1.409       .  A
C626        C627   1.408       .  A
C626        H635   1.084       .  S
C627        C628   1.412       .  A
C627        S631   1.803       .  S
C628        C629   1.403       .  A
C629        C630   1.398       .  A
C629        H636   1.085       .  S
C630        S632   1.805       .  S
S631        H634   1.405       .  S
S632        H633   1.407       .  S
C638        C639   1.390       .  A
C639        C640   1.404       .  A
C639        S643   1.804       .  S
C640        C641   1.403       .  A
C641        C642   1.395       .  A
C641        H648   1.084       .  S
S643        H646   1.404       .  S
S644        H645   1.408       .  S
C649        C650   1.398       .  A
C649        C654   1.416       .  A
C650       C1563   1.402       .  A
C650        H659   1.086       .  S
C651       C1562   1.399       .  A
C651        C652   1.423       .  A
C651        S655   1.801       .  S
C652        C653   1.404       .  A
C653       C1566   1.395       .  A
C653        H660   1.087       .  S
C654       C1565   1.399   1_455  A
C654        S656   1.804       .  S
S655        H658   1.408       .  S
S656        H657   1.404       .  S
C662        C663   1.401       .  A
C663        C664   1.414       .  A
C663        S667   1.810       .  S
C664        C665   1.410       .  A
C665        C666   1.400       .  A
C665        H672   1.083       .  S
S667        H670   1.407       .  S
S668        H669   1.407       .  S
C673        C674   1.413       .  A
C673        C678   1.413       .  A
C674       C1587   1.396   1_455  A
C674        H683   1.084       .  S
C675       C1586   1.392       .  A
C675        C676   1.406       .  A
C675        S679   1.803       .  S
C676        C677   1.403       .  A
C677       C1590   1.396       .  A
C677        H684   1.085       .  S
C678       C1589   1.395   1_455  A
C678        S680   1.800       .  S
S679        H682   1.406       .  S
S680        H681   1.408       .  S
C685        C686   1.403       .  A
C685        C690   1.414       .  A
C686        C687   1.405       .  A
C686        H695   1.084       .  S
C687        C688   1.415       .  A
C687        S691   1.802       .  S
C688        C689   1.403       .  A
C689        C690   1.406       .  A
C689        H696   1.083       .  S
C690        S692   1.802       .  S
S691        H694   1.406       .  S
S692        H693   1.405       .  S
C697        C698   1.407       .  A
C697        C702   1.418       .  A
C698        C699   1.410       .  A
C698        H707   1.085       .  S
C699        C700   1.416       .  A
C699        S703   1.804       .  S
C700        C701   1.406       .  A
C701        C702   1.410       .  A
C701        H708   1.085       .  S
C702        S704   1.801       .  S
S703        H706   1.406       .  S
S704        H705   1.403       .  S
C709        C710   1.406       .  A
C709        C714   1.411       .  A
C710        C711   1.405       .  A
C710        H719   1.086       .  S
C711        C712   1.412       .  A
C711        S715   1.803       .  S
C712        C713   1.407       .  A
C713        C714   1.407       .  A
C713        H720   1.086       .  S
C714        S716   1.804       .  S
S715        H718   1.405       .  S
S716        H717   1.407       .  S
C721        C722   1.404       .  A
C721        C726   1.405       .  A
C722        C723   1.394       .  A
C722        H731   1.085       .  S
C725        C726   1.390       .  A
C726        S728   1.805       .  S
S727        H730   1.408       .  S
S728        H729   1.404       .  S
C733        C734   1.403       .  A
C733        C738   1.420       .  A
C734        C735   1.400       .  A
C734        H743   1.082       .  S
C735        C736   1.417       .  A
C735        S739   1.811       .  S
C736        C737   1.401       .  A
C737        C738   1.402       .  A
C737        H744   1.083       .  S
C738        S740   1.811       .  S
S739        H742   1.407       .  S
S740        H741   1.407       .  S
C745        C746   1.407       .  A
C745        C750   1.416       .  A
C746        C747   1.407       .  A
C746        H755   1.084       .  S
C747        C748   1.413       .  A
C747        S751   1.804       .  S
C748        C749   1.403       .  A
C749        C750   1.404       .  A
C749        H756   1.084       .  S
C750        S752   1.800       .  S
S751        H754   1.407       .  S
S752        H753   1.406       .  S
C758        C759   1.407       .  A
C759        C760   1.414       .  A
C759        S763   1.808       .  S
C760        C761   1.410       .  A
C761        C762   1.400       .  A
C761        H768   1.083       .  S
S763        H766   1.407       .  S
S764        H765   1.407       .  S
C769        C770   1.399       .  A
C769        C774   1.421       .  A
C770        C771   1.399       .  A
C770        H779   1.083       .  S
C771        C772   1.417       .  A
C771        S775   1.810       .  S
C772        C773   1.397       .  A
C773        C774   1.394       .  A
C773        H780   1.084       .  S
C774        S776   1.804       .  S
S775        H778   1.407       .  S
S776        H777   1.408       .  S
C781        C782   1.407       .  A
C781        C786   1.411       .  A
C782        C783   1.409       .  A
C782        H791   1.083       .  S
C783        C784   1.413       .  A
C783        S787   1.803       .  S
C784        C785   1.404       .  A
C785        C786   1.400       .  A
C785        H792   1.084       .  S
C786        S788   1.805       .  S
S787        H790   1.404       .  S
S788        H789   1.407       .  S
C793        C794   1.404       .  A
C793        C798   1.417       .  A
C794        C795   1.405       .  A
C794        H803   1.085       .  S
C795        C796   1.415       .  A
C795        S799   1.800       .  S
C796        C797   1.404       .  A
C797        C798   1.408       .  A
C797        H804   1.084       .  S
C798        S800   1.804       .  S
S799        H802   1.404       .  S
S800        H801   1.407       .  S
C805        C806   1.410       .  A
C805        C810   1.413       .  A
C806        C807   1.407       .  A
C806        H815   1.083       .  S
C807        C808   1.415       .  A
C807        S811   1.801       .  S
C808        C809   1.412       .  A
C809        C810   1.408       .  A
C809        H816   1.083       .  S
C810        S812   1.802       .  S
S811        H814   1.408       .  S
S812        H813   1.407       .  S
C817        C818   1.403       .  A
C817        C822   1.409       .  A
C818        C819   1.402   1_554  A
C818        H827   1.084       .  S
C819        C820   1.414       .  A
C819        S823   1.806       .  S
C820        C821   1.407       .  A
C821        C822   1.409   1_556  A
C821        H828   1.084       .  S
C822        S824   1.804       .  S
S823        H826   1.398       .  S
S824        H825   1.407       .  S
C829        C830   1.399       .  A
C829        C834   1.415       .  A
C830       C1743   1.392       .  A
C830        H839   1.084       .  S
C831       C1742   1.393   1_455  A
C831        C832   1.418       .  A
C831        S835   1.805       .  S
C832        C833   1.403       .  A
C833       C1746   1.401       .  A
C833        H840   1.082       .  S
C834       C1745   1.403       .  A
C834        S836   1.809       .  S
S835        H838   1.403       .  S
S836        H837   1.407       .  S
C841        C842   1.409       .  A
C841        C846   1.413       .  A
C842        C843   1.390       .  A
C842        H851   1.083       .  S
C843        C844   1.406       .  A
C843        S847   1.805       .  S
C844        C845   1.402       .  A
C845        C846   1.393       .  A
C845        H852   1.084       .  S
C846        S848   1.801       .  S
S847        H850   1.404       .  S
S848        H849   1.408       .  S
C853        C854   1.407       .  A
C853        C858   1.417       .  A
C854        C855   1.406       .  A
C854        H863   1.084       .  S
C855        C856   1.412       .  A
C855        S859   1.804       .  S
C856        C857   1.405       .  A
C857        C858   1.406       .  A
C857        H864   1.084       .  S
C858        S860   1.801       .  S
S859        H862   1.406       .  S
S860        H861   1.405       .  S
C865        C866   1.410       .  A
C865        C870   1.412       .  A
C866        C867   1.404       .  A
C866        H875   1.084       .  S
C867        C868   1.413       .  A
C867        S871   1.802       .  S
C868        C869   1.410       .  A
C869        C870   1.403       .  A
C869        H876   1.083       .  S
C870        S872   1.802       .  S
S871        H874   1.407       .  S
S872        H873   1.407       .  S
C877        C878   1.409       .  A
C877        C882   1.411       .  A
C878       C1791   1.390       .  A
C878        H887   1.084       .  S
C879       C1790   1.397   1_455  A
C879        C880   1.413       .  A
C879        S883   1.801       .  S
C880        C881   1.408       .  A
C881       C1794   1.390   1_455  A
C881        H888   1.085       .  S
C882       C1793   1.395       .  A
C882        S884   1.800       .  S
S883        H886   1.407       .  S
S884        H885   1.408       .  S
C889        C890   1.399       .  A
C889        C894   1.421       .  A
C890        C891   1.395       .  A
C890        H899   1.082       .  S
C891        C892   1.420       .  A
C891        S895   1.805       .  S
C892        C893   1.400       .  A
C893        C894   1.403       .  A
C893        H900   1.081       .  S
C894        S896   1.811       .  S
S895        H898   1.404       .  S
S896        H897   1.406       .  S
C901        C902   1.405       .  A
C901        C906   1.410       .  A
C902        C903   1.404   1_554  A
C902        H911   1.082       .  S
C903        C904   1.411       .  A
C903        S907   1.803       .  S
C904        C905   1.405       .  A
C905        C906   1.402   1_556  A
C905        H912   1.083       .  S
C906        S908   1.804       .  S
S907        H910   1.404       .  S
S908        H909   1.406       .  S
O913        V921   1.902       .  S
O913        C923   1.267       .  A
O914        V921   1.897       .  S
O914        C924   1.265       .  A
O915        V921   1.896       .  S
O915        C925   1.262       .  A
O916        V921   1.889       .  S
O916        C926   1.260       .  A
O917        V922   1.921       .  S
O917        C926   1.269       .  A
O918        V922   1.924       .  S
O918        C925   1.272       .  A
O919        V922   1.877       .  S
O919        C924   1.257       .  A
O920        V922   1.884       .  S
O920        C923   1.259       .  A
V921        V922   2.087       .  T
C923       C1345   1.478       .  S
C924       C1333   1.455       .  S
C925       C1321   1.495       .  S
C926       C1357   1.477       .  S
O927        V935   1.903       .  S
O927        C937   1.268       .  A
O928        V935   1.905       .  S
O928        C938   1.266       .  A
O929        V935   1.900       .  S
O929        C939   1.262       .  A
O930        V935   1.893       .  S
O930        C940   1.262       .  A
O931        V936   1.917       .  S
O931        C940   1.267       .  A
O932        V936   1.918       .  S
O932        C939   1.269       .  A
O933        V936   1.876       .  S
O933        C938   1.259       .  A
O934        V936   1.893       .  S
O934        C937   1.261       .  A
V935        V936   2.087       .  T
C937       C1285   1.486       .  S
C938       C1300   1.465       .  S
C939       C1312   1.484       .  S
C940       C1360   1.477       .  S
O941        V949   1.905       .  S
O941        C951   1.268       .  A
O942        V949   1.902       .  S
O942        C952   1.265       .  A
O943        V949   1.893       .  S
O943        C953   1.263       .  A
O944        V949   1.887       .  S
O944        C954   1.260       .  A
O945        V950   1.925       .  S
O945        C954   1.270       .  A
O946        V950   1.926       .  S
O946        C953   1.271       .  A
O947        V950   1.871       .  S
O947        C952   1.258       .  A
O948        V950   1.881       .  S
O948        C951   1.258       .  A
V949        V950   2.084       .  T
C951       C1348   1.479       .  S
C952       C1336   1.466       .  S
C953       C1261   1.507       .  S
C954       C1273   1.477       .  S
O955        V963   1.908       .  S
O955        C965   1.269       .  A
O956        V963   1.910       .  S
O956        C966   1.268       .  A
O957        V963   1.894       .  S
O957        C967   1.261       .  A
O958        V963   1.887       .  S
O958        C968   1.260       .  A
O959        V964   1.918       .  S
O959        C968   1.268       .  A
O960        V964   1.918       .  S
O960        C967   1.269       .  A
O961        V964   1.873       .  S
O961        C966   1.259       .  A
O962        V964   1.885       .  S
O962        C965   1.259       .  A
V963        V964   2.084       .  T
C965       C1288   1.483       .  S
C966       C1297   1.483       .  S
C967       C1249   1.479       .  S
C968       C1276   1.473       .  S
O969        V977   1.908       .  S
O969        C979   1.268       .  A
O970        V977   1.910       .  S
O970        C980   1.269       .  A
O971        V977   1.895       .  S
O971        C981   1.261       .  A
O972        V977   1.886       .  S
O972        C982   1.260       .  A
O973        V978   1.923       .  S
O973        C982   1.269       .  A
O974        V978   1.925       .  S
O974        C981   1.271       .  A
O975        V978   1.876       .  S
O975        C980   1.257       .  A
O976        V978   1.891       .  S
O976        C979   1.262       .  A
V977        V978   2.086       .  T
C979       C1216   1.488       .  S
C980       C1228   1.477       .  S
C981       C1309   1.489       .  S
C982       C1237   1.477       .  S
O983        V991   1.907       .  S
O983        C993   1.268       .  A
O984        V991   1.905       .  S
O984        C994   1.266       .  A
O985        V991   1.897       .  S
O985        C995   1.262       .  A
O986        V991   1.890       .  S
O986        C996   1.261       .  A
O987        V992   1.919       .  S
O987        C996   1.268       .  A
O988        V992   1.919       .  S
O988        C995   1.269       .  A
O989        V992   1.871       .  S
O989        C994   1.257       .  A
O990        V992   1.885       .  S
O990        C993   1.259       .  A
V991        V992   2.086       .  T
C993       C1189   1.486       .  S
C994       C1177   1.458       .  S
C995       C1201   1.488       .  S
C996       C1240   1.477       .  S
O997       V1005   1.915       .  S
O997       C1007   1.269       .  A
O998       V1005   1.917       .  S
O998       C1008   1.271       .  A
O999       V1005   1.891       .  S
O999       C1009   1.260       .  A
O1000      V1005   1.884       .  S
O1000      C1010   1.259       .  A
O1001      V1006   1.924       .  S
O1001      C1010   1.270       .  A
O1002      V1006   1.921       .  S
O1002      C1009   1.270       .  A
O1003      V1006   1.868       .  S
O1003      C1008   1.255       .  A
O1004      V1006   1.882       .  S
O1004      C1007   1.261       .  A
V1005      V1006   2.084       .  T
C1007      C1213   1.492       .  S
C1008      C1225   1.479       .  S
C1009      C1252   1.483       .  S
C1010      C1165   1.477       .  S
O1011      V1019   1.904       .  S
O1011      C1021   1.267       .  A
O1012      V1019   1.901       .  S
O1012      C1022   1.265       .  A
O1013      V1019   1.904       .  S
O1013      C1023   1.263       .  A
O1014      V1019   1.894       .  S
O1014      C1024   1.262       .  A
O1015      V1020   1.918       .  S
O1015      C1024   1.268       .  A
O1016      V1020   1.923       .  S
O1016      C1023   1.270       .  A
O1017      V1020   1.868       .  S
O1017      C1022   1.258       .  A
O1018      V1020   1.887       .  S
O1018      C1021   1.260       .  A
V1019      V1020   2.085       .  T
C1021      C1192   1.482       .  S
C1022      C1180   1.469       .  S
C1023      C1153   1.490       .  S
C1024      C1168   1.478       .  S
O1025      V1033   1.922       .  S
O1025      C1035   1.271       .  A
O1026      V1033   1.909       .  S
O1026      C1036   1.267       .  A
O1027      V1033   1.902       .  S
O1027      C1037   1.263       .  A
O1028      V1033   1.893       .  S
O1028      C1038   1.261       .  A
O1029      V1034   1.922       .  S
O1029      C1038   1.269       .  A
O1030      V1034   1.920       .  S
O1030      C1037   1.270       .  A
O1031      V1034   1.871       .  S
O1031      C1036   1.259       .  A
O1032      V1034   1.881       .  S
O1032      C1035   1.260       .  A
V1033      V1034   2.084       .  T
C1035      C1117   1.496       .  S
C1036      C1129   1.482       .  S
C1037      C1264   1.490       .  S
C1038      C1141   1.480       .  S
O1039      V1047   1.909       .  S
O1039      C1049   1.268       .  A
O1040      V1047   1.908       .  S
O1040      C1050   1.267       .  A
O1041      V1047   1.895       .  S
O1041      C1051   1.261       .  A
O1042      V1047   1.888       .  S
O1042      C1052   1.260       .  A
O1043      V1048   1.925       .  S
O1043      C1052   1.270       .  A
O1044      V1048   1.924       .  S
O1044      C1051   1.272       .  A
O1045      V1048   1.870       .  S
O1045      C1050   1.258       .  A
O1046      V1048   1.880       .  S
O1046      C1049   1.258       .  A
V1047      V1048   2.083       .  T
C1049      C1105   1.475       .  S
C1050      C1093   1.478       .  S
C1051      C1156   1.491       .  S
C1052      C1144   1.478       .  S
O1053      V1061   1.911       .  S
O1053      C1063   1.268       .  A
O1054      V1061   1.906       .  S
O1054      C1064   1.267       .  A
O1055      V1061   1.897       .  S
O1055      C1065   1.263       .  A
O1056      V1061   1.892       .  S
O1056      C1066   1.261       .  A
O1057      V1062   1.917       .  S
O1057      C1066   1.268       .  A
O1058      V1062   1.921       .  S
O1058      C1065   1.271       .  A
O1059      V1062   1.873       .  S
O1059      C1064   1.257       .  A
O1060      V1062   1.883       .  S
O1060      C1063   1.260       .  A
V1061      V1062   2.087       .  T
C1063      C1120   1.480       .  S
C1064      C1132   1.461       .  S
C1065      C1324   1.499       .  S
C1066      C1084   1.476       .  S
O1067      V1075   1.905       .  S
O1067      C1077   1.268       .  A
O1068      V1075   1.905       .  S
O1068      C1078   1.266       .  A
O1069      V1075   1.893       .  S
O1069      C1079   1.261       .  A
O1070      V1075   1.889       .  S
O1070      C1080   1.260       .  A
O1071      V1076   1.918       .  S
O1071      C1080   1.268       .  A
O1072      V1076   1.921       .  S
O1072      C1079   1.270       .  A
O1073      V1076   1.877       .  S
O1073      C1078   1.258       .  A
O1074      V1076   1.893       .  S
O1074      C1077   1.261       .  A
V1075      V1076   2.086       .  T
C1077      C1108   1.492       .  S
C1078      C1096   1.463       .  S
C1079      C1204   1.483       .  S
C1080      C1081   1.474       .  S
C1081      C1082   1.405       .  A
C1081      C1086   1.410       .  A
C1082      C1083   1.405       .  A
C1082      H1091   1.085       .  S
C1083      C1084   1.411       .  A
C1083      S1087   1.804       .  S
C1084      C1085   1.405       .  A
C1085      C1086   1.402       .  A
C1085      H1092   1.084       .  S
C1086      S1088   1.805       .  S
S1087      H1090   1.405       .  S
S1088      H1089   1.407       .  S
C1093      C1550   1.410       .  A
C1093      C1554   1.414       .  A
C1094      C1549   1.410   1_545  A
C1094      C1095   1.393       .  A
C1094      H1559   1.083       .  S
C1095      C1096   1.407       .  A
C1095      S1099   1.805       .  S
C1096      C1097   1.403       .  A
C1097      C1098   1.396       .  A
C1097      H1104   1.084       .  S
C1098      C1549   1.414   1_545  A
C1098      S1556   1.801   1_545  S
S1099      H1102   1.402       .  S
S1100      C1554   1.801       .  S
S1100      H1101   1.408       .  S
H1103      C1550   1.083       .  S
C1105      C1106   1.398       .  A
C1105      C1110   1.416       .  A
C1106      H1115   1.086       .  S
C1107      C1108   1.424   1_455  A
C1107      S1111   1.800       .  S
C1108      C1109   1.405       .  A
C1109      H1116   1.085       .  S
C1110      S1112   1.804       .  S
S1111      H1114   1.408       .  S
S1112      H1113   1.407       .  S
C1117      C1574   1.412       .  A
C1117      C1578   1.415       .  A
C1118      C1573   1.411   1_545  A
C1118      C1119   1.403       .  A
C1118      H1583   1.083       .  S
C1119      C1120   1.409       .  A
C1119      S1123   1.808       .  S
C1120      C1121   1.406       .  A
C1121      C1122   1.398   1_545  A
C1121      H1128   1.085       .  S
C1122      C1573   1.413       .  A
C1122      S1580   1.801       .  S
S1123      H1126   1.406       .  S
S1124      C1578   1.800       .  S
S1124      H1125   1.408       .  S
H1127      C1574   1.082       .  S
C1129      C1130   1.412       .  A
C1129      C1134   1.414       .  A
C1130      H1139   1.084       .  S
C1131      C1132   1.404       .  A
C1131      S1135   1.804       .  S
C1132      C1133   1.403   1_655  A
C1133      H1140   1.085       .  S
C1134      S1136   1.800       .  S
S1135      H1138   1.407       .  S
S1136      H1137   1.408       .  S
C1141      C1142   1.402       .  A
C1141      C1146   1.415       .  A
C1142      C1143   1.404       .  A
C1142      H1151   1.083       .  S
C1143      C1144   1.414       .  A
C1143      S1147   1.803       .  S
C1144      C1145   1.403       .  A
C1145      C1146   1.404       .  A
C1145      H1152   1.083       .  S
C1146      S1148   1.803       .  S
S1147      H1150   1.406       .  S
S1148      H1149   1.406       .  S
C1153      C1154   1.403       .  A
C1153      C1158   1.416       .  A
C1154      C1155   1.408       .  A
C1154      H1163   1.084       .  S
C1155      C1156   1.419       .  A
C1155      S1159   1.803       .  S
C1156      C1157   1.404       .  A
C1157      C1158   1.405       .  A
C1157      H1164   1.085       .  S
C1158      S1160   1.798       .  S
S1159      H1162   1.407       .  S
S1160      H1161   1.402       .  S
C1165      C1166   1.407       .  A
C1165      C1170   1.411       .  A
C1166      C1167   1.407       .  A
C1166      H1175   1.082       .  S
C1167      C1168   1.412       .  A
C1167      S1171   1.804       .  S
C1168      C1169   1.405       .  A
C1169      C1170   1.401       .  A
C1169      H1176   1.084       .  S
C1170      S1172   1.805       .  S
S1171      H1174   1.403       .  S
S1172      H1173   1.407       .  S
C1177      C1178   1.403       .  A
C1177      C1182   1.406       .  A
C1178      C1179   1.393   1_545  A
C1178      H1187   1.086       .  S
C1179      C1636   1.412       .  A
C1179      S1639   1.801       .  S
C1180      C1635   1.408       .  A
C1180      C1637   1.406       .  A
C1181      C1636   1.410   1_545  A
C1181      C1182   1.392       .  A
C1181      H1644   1.084       .  S
C1182      S1184   1.805       .  S
S1183      C1635   1.800       .  S
S1183      H1186   1.408       .  S
S1184      H1185   1.403       .  S
H1188      C1637   1.085       .  S
C1189      C1190   1.403       .  A
C1189      C1194   1.420       .  A
C1190      C1191   1.401       .  A
C1190      H1199   1.082       .  S
C1191      C1192   1.418       .  A
C1191      S1195   1.810       .  S
C1192      C1193   1.401       .  A
C1193      C1194   1.402       .  A
C1193      H1200   1.082       .  S
C1194      S1196   1.811       .  S
S1195      H1198   1.407       .  S
S1196      H1197   1.407       .  S
C1201      C1202   1.406       .  A
C1201      C1206   1.415       .  A
C1202      C1203   1.405       .  A
C1202      H1211   1.083       .  S
C1203      C1204   1.413       .  A
C1203      S1207   1.804       .  S
C1204      C1205   1.404       .  A
C1205      C1206   1.404       .  A
C1205      H1212   1.083       .  S
C1206      S1208   1.800       .  S
S1207      H1210   1.407       .  S
S1208      H1209   1.406       .  S
C1213      C1670   1.412       .  A
C1213      C1674   1.415       .  A
C1214      C1669   1.409   1_545  A
C1214      C1215   1.403       .  A
C1214      H1679   1.082       .  S
C1215      C1216   1.413       .  A
C1215      S1219   1.809       .  S
C1216      C1217   1.409       .  A
C1217      C1218   1.400   1_545  A
C1217      H1224   1.083       .  S
C1218      C1669   1.413       .  A
C1218      S1676   1.802       .  S
S1219      H1222   1.406       .  S
S1220      C1674   1.800       .  S
S1220      H1221   1.408       .  S
H1223      C1670   1.081       .  S
C1225      C1226   1.400       .  A
C1225      C1230   1.421       .  A
C1226      C1227   1.401       .  A
C1226      H1235   1.082       .  S
C1227      C1228   1.419       .  A
C1227      S1231   1.810       .  S
C1228      C1229   1.398       .  A
C1229      C1230   1.394       .  A
C1229      H1236   1.083       .  S
C1230      S1232   1.805       .  S
S1231      H1234   1.406       .  S
S1232      H1233   1.407       .  S
C1237      C1238   1.406       .  A
C1237      C1242   1.411       .  A
C1238      C1239   1.408       .  A
C1238      H1247   1.083       .  S
C1239      C1240   1.412       .  A
C1239      S1243   1.803       .  S
C1240      C1241   1.404       .  A
C1241      C1242   1.399       .  A
C1241      H1248   1.084       .  S
C1242      S1244   1.805       .  S
S1243      H1246   1.404       .  S
S1244      H1245   1.407       .  S
C1249      C1250   1.403       .  A
C1249      C1254   1.413       .  A
C1250      C1251   1.404       .  A
C1250      H1259   1.085       .  S
C1251      C1252   1.414       .  A
C1251      S1255   1.801       .  S
C1252      C1253   1.406       .  A
C1253      C1254   1.404       .  A
C1253      H1260   1.085       .  S
C1254      S1256   1.805       .  S
S1255      H1258   1.405       .  S
S1256      H1257   1.406       .  S
C1261      C1262   1.414       .  A
C1261      C1266   1.420       .  A
C1262      C1263   1.404       .  A
C1262      H1271   1.082       .  S
C1263      C1264   1.408       .  A
C1263      S1267   1.803       .  S
C1264      C1265   1.408       .  A
C1265      C1266   1.409       .  A
C1265      H1272   1.083       .  S
C1266      S1268   1.799       .  S
S1267      H1270   1.407       .  S
S1268      H1269   1.408       .  S
C1273      C1274   1.403       .  A
C1273      C1278   1.409       .  A
C1274      C1275   1.400   1_554  A
C1274      H1283   1.083       .  S
C1275      C1276   1.412       .  A
C1275      S1279   1.806       .  S
C1276      C1277   1.405       .  A
C1277      C1278   1.408   1_556  A
C1277      H1284   1.084       .  S
C1278      S1280   1.804       .  S
S1279      H1282   1.401       .  S
S1280      H1281   1.407       .  S
C1285      C1286   1.402       .  A
C1285      C1290   1.419   1_655  A
C1286      H1295   1.082       .  S
C1287      C1288   1.420       .  A
C1287      S1291   1.804       .  S
C1288      C1289   1.403       .  A
C1289      H1296   1.083       .  S
C1290      S1292   1.800       .  S
S1291      H1294   1.404       .  S
S1292      H1293   1.408   1_455  S
C1297      C1298   1.412       .  A
C1297      C1302   1.414       .  A
C1298      C1299   1.394       .  A
C1298      H1307   1.085       .  S
C1299      C1300   1.406       .  A
C1299      S1303   1.804       .  S
C1300      C1301   1.404       .  A
C1301      C1302   1.396       .  A
C1301      H1308   1.086       .  S
C1302      S1304   1.800       .  S
S1303      H1306   1.406       .  S
S1304      H1305   1.408       .  S
C1309      C1310   1.407       .  A
C1309      C1314   1.415       .  A
C1310      C1311   1.406       .  A
C1310      H1319   1.083       .  S
C1311      C1312   1.413       .  A
C1311      S1315   1.804       .  S
C1312      C1313   1.405       .  A
C1313      C1314   1.405       .  A
C1313      H1320   1.083       .  S
C1314      S1316   1.801       .  S
S1315      H1318   1.406       .  S
S1316      H1317   1.405       .  S
C1321      C1322   1.409       .  A
C1321      C1326   1.412       .  A
C1322      C1323   1.405       .  A
C1322      H1331   1.083       .  S
C1323      C1324   1.415       .  A
C1323      S1327   1.801       .  S
C1324      C1325   1.412       .  A
C1325      C1326   1.406       .  A
C1325      H1332   1.084       .  S
C1326      S1328   1.802       .  S
S1327      H1330   1.408       .  S
S1328      H1329   1.408       .  S
C1333      C1334   1.403   1_655  A
C1333      C1338   1.402       .  A
C1334      H1343   1.083   1_455  S
C1335      C1336   1.414       .  A
C1335      S1339   1.803       .  S
C1336      C1337   1.406       .  A
C1337      H1344   1.085       .  S
C1338      S1340   1.802       .  S
S1339      H1342   1.402       .  S
S1340      H1341   1.405       .  S
C1345      C1346   1.401       .  A
C1345      C1350   1.418       .  A
C1346      C1347   1.395       .  A
C1346      H1355   1.084       .  S
C1347      C1348   1.419       .  A
C1347      S1351   1.804       .  S
C1348      C1349   1.401       .  A
C1349      C1350   1.400       .  A
C1349      H1356   1.082       .  S
C1350      S1352   1.809       .  S
S1351      H1354   1.405       .  S
S1352      H1353   1.407       .  S
C1357      C1358   1.405       .  A
C1357      C1362   1.412       .  A
C1358      C1359   1.401   1_554  A
C1358      H1367   1.084       .  S
C1359      C1360   1.410       .  A
C1359      S1363   1.804       .  S
C1360      C1361   1.406       .  A
C1361      C1362   1.406   1_556  A
C1361      H1368   1.084       .  S
C1362      S1364   1.802       .  S
S1363      H1366   1.407       .  S
S1364      H1365   1.404       .  S
O1369      V1377   1.902       .  S
O1369      C1379   1.268       .  A
O1370      V1377   1.900       .  S
O1370      C1380   1.264       .  A
O1371      V1377   1.898       .  S
O1371      C1381   1.263       .  A
O1372      V1377   1.889       .  S
O1372      C1382   1.261       .  A
O1373      V1378   1.925       .  S
O1373      C1382   1.269       .  A
O1374      V1378   1.925       .  S
O1374      C1381   1.272       .  A
O1375      V1378   1.877       .  S
O1375      C1380   1.257       .  A
O1376      V1378   1.887       .  S
O1376      C1379   1.259       .  A
V1377      V1378   2.085       .  T
C1379      C1801   1.487       .  S
C1380      C1789   1.455       .  S
C1381      C1777   1.499       .  S
C1382      C1813   1.479       .  S
O1383      V1391   1.897       .  S
O1383      C1393   1.266       .  A
O1384      V1391   1.898       .  S
O1384      C1394   1.264       .  A
O1385      V1391   1.903       .  S
O1385      C1395   1.263       .  A
O1386      V1391   1.897       .  S
O1386      C1396   1.263       .  A
O1387      V1392   1.919       .  S
O1387      C1396   1.268       .  A
O1388      V1392   1.917       .  S
O1388      C1395   1.269       .  A
O1389      V1392   1.874       .  S
O1389      C1394   1.258       .  A
O1390      V1392   1.888       .  S
O1390      C1393   1.260       .  A
V1391      V1392   2.087       .  T
C1393      C1741   1.478       .  S
C1394      C1756   1.458       .  S
C1395      C1768   1.484       .  S
C1396      C1816   1.481       .  S
O1397      V1405   1.906       .  S
O1397      C1407   1.267       .  A
O1398      V1405   1.902       .  S
O1398      C1408   1.266       .  A
O1399      V1405   1.902       .  S
O1399      C1409   1.263       .  A
O1400      V1405   1.894       .  S
O1400      C1410   1.261       .  A
O1401      V1406   1.927       .  S
O1401      C1410   1.271       .  A
O1402      V1406   1.929       .  S
O1402      C1409   1.273       .  A
O1403      V1406   1.872       .  S
O1403      C1408   1.257       .  A
O1404      V1406   1.884       .  S
O1404      C1407   1.259       .  A
V1405      V1406   2.085       .  T
C1407      C1804   1.475       .  S
C1408      C1792   1.470       .  S
C1409      C1717   1.501       .  S
C1410      C1729   1.484       .  S
O1411      V1419   1.904       .  S
O1411      C1421   1.267       .  A
O1412      V1419   1.902       .  S
O1412      C1422   1.266       .  A
O1413      V1419   1.898       .  S
O1413      C1423   1.262       .  A
O1414      V1419   1.891       .  S
O1414      C1424   1.261       .  A
O1415      V1420   1.923       .  S
O1415      C1424   1.270       .  A
O1416      V1420   1.921       .  S
O1416      C1423   1.270       .  A
O1417      V1420   1.871       .  S
O1417      C1422   1.258       .  A
O1418      V1420   1.882       .  S
O1418      C1421   1.259       .  A
V1419      V1420   2.083       .  T
C1421      C1744   1.481       .  S
C1422      C1753   1.475       .  S
C1423      C1705   1.484       .  S
C1424      C1732   1.480       .  S
O1425      V1433   1.904       .  S
O1425      C1435   1.267       .  A
O1426      V1433   1.906       .  S
O1426      C1436   1.267       .  A
O1427      V1433   1.901       .  S
O1427      C1437   1.263       .  A
O1428      V1433   1.891       .  S
O1428      C1438   1.262       .  A
O1429      V1434   1.921       .  S
O1429      C1438   1.268       .  A
O1430      V1434   1.922       .  S
O1430      C1437   1.271       .  A
O1431      V1434   1.876       .  S
O1431      C1436   1.258       .  A
O1432      V1434   1.890       .  S
O1432      C1435   1.262       .  A
V1433      V1434   2.086       .  T
C1435      C1672   1.480       .  S
C1436      C1684   1.472       .  S
C1437      C1765   1.491       .  S
C1438      C1693   1.479       .  S
O1439      V1447   1.907       .  S
O1439      C1449   1.268       .  A
O1440      V1447   1.900       .  S
O1440      C1450   1.265       .  A
O1441      V1447   1.896       .  S
O1441      C1451   1.261       .  A
O1442      V1447   1.885       .  S
O1442      C1452   1.260       .  A
O1443      V1448   1.926       .  S
O1443      C1452   1.270       .  A
O1444      V1448   1.927       .  S
O1444      C1451   1.272       .  A
O1445      V1448   1.871       .  S
O1445      C1450   1.258       .  A
O1446      V1448   1.885       .  S
O1446      C1449   1.260       .  A
V1447      V1448   2.086       .  T
C1449      C1645   1.484       .  S
C1450      C1633   1.472       .  S
C1451      C1657   1.487       .  S
C1452      C1696   1.481       .  S
O1453      V1461   1.911       .  S
O1453      C1463   1.268       .  A
O1454      V1461   1.909       .  S
O1454      C1464   1.269       .  A
O1455      V1461   1.897       .  S
O1455      C1465   1.262       .  A
O1456      V1461   1.889       .  S
O1456      C1466   1.260       .  A
O1457      V1462   1.922       .  S
O1457      C1466   1.269       .  A
O1458      V1462   1.922       .  S
O1458      C1465   1.270       .  A
O1459      V1462   1.873       .  S
O1459      C1464   1.257       .  A
O1460      V1462   1.888       .  S
O1460      C1463   1.262       .  A
V1461      V1462   2.086       .  T
C1463      C1669   1.488       .  S
C1464      C1681   1.475       .  S
C1465      C1708   1.487       .  S
C1466      C1621   1.477       .  S
O1467      V1475   1.908       .  S
O1467      C1477   1.268       .  A
O1468      V1475   1.904       .  S
O1468      C1478   1.267       .  A
O1469      V1475   1.902       .  S
O1469      C1479   1.263       .  A
O1470      V1475   1.890       .  S
O1470      C1480   1.260       .  A
O1471      V1476   1.921       .  S
O1471      C1480   1.269       .  A
O1472      V1476   1.927       .  S
O1472      C1479   1.271       .  A
O1473      V1476   1.870       .  S
O1473      C1478   1.258       .  A
O1474      V1476   1.886       .  S
O1474      C1477   1.260       .  A
V1475      V1476   2.085       .  T
C1477      C1648   1.487       .  S
C1478      C1636   1.477       .  S
C1479      C1609   1.492       .  S
C1480      C1624   1.477       .  S
O1481      V1489   1.908       .  S
O1481      C1491   1.268       .  A
O1482      V1489   1.905       .  S
O1482      C1492   1.266       .  A
O1483      V1489   1.903       .  S
O1483      C1493   1.263       .  A
O1484      V1489   1.894       .  S
O1484      C1494   1.261       .  A
O1485      V1490   1.926       .  S
O1485      C1494   1.270       .  A
O1486      V1490   1.927       .  S
O1486      C1493   1.271       .  A
O1487      V1490   1.875       .  S
O1487      C1492   1.259       .  A
O1488      V1490   1.887       .  S
O1488      C1491   1.262       .  A
V1489      V1490   2.082       .  T
C1491      C1573   1.487       .  S
C1492      C1585   1.481       .  S
C1493      C1720   1.492       .  S
C1494      C1597   1.483       .  S
O1495      V1503   1.909       .  S
O1495      C1505   1.267       .  A
O1496      V1503   1.906       .  S
O1496      C1506   1.267       .  A
O1497      V1503   1.899       .  S
O1497      C1507   1.262       .  A
O1498      V1503   1.894       .  S
O1498      C1508   1.261       .  A
O1499      V1504   1.926       .  S
O1499      C1508   1.270       .  A
O1500      V1504   1.927       .  S
O1500      C1507   1.272       .  A
O1501      V1504   1.873       .  S
O1501      C1506   1.258       .  A
O1502      V1504   1.885       .  S
O1502      C1505   1.260       .  A
V1503      V1504   2.085       .  T
C1505      C1561   1.471       .  S
C1506      C1549   1.479       .  S
C1507      C1612   1.494       .  S
C1508      C1600   1.484       .  S
O1509      V1517   1.915       .  S
O1509      C1519   1.270       .  A
O1510      V1517   1.911       .  S
O1510      C1520   1.268       .  A
O1511      V1517   1.895       .  S
O1511      C1521   1.262       .  A
O1512      V1517   1.891       .  S
O1512      C1522   1.260       .  A
O1513      V1518   1.924       .  S
O1513      C1522   1.270       .  A
O1514      V1518   1.929       .  S
O1514      C1521   1.273       .  A
O1515      V1518   1.874       .  S
O1515      C1520   1.258       .  A
O1516      V1518   1.891       .  S
O1516      C1519   1.261       .  A
V1517      V1518   2.085       .  T
C1519      C1576   1.488       .  S
C1520      C1588   1.471       .  S
C1521      C1780   1.501       .  S
C1522      C1540   1.481       .  S
O1523      V1531   1.909       .  S
O1523      C1533   1.269       .  A
O1524      V1531   1.903       .  S
O1524      C1534   1.266       .  A
O1525      V1531   1.894       .  S
O1525      C1535   1.262       .  A
O1526      V1531   1.893       .  S
O1526      C1536   1.261       .  A
O1527      V1532   1.922       .  S
O1527      C1536   1.269       .  A
O1528      V1532   1.928       .  S
O1528      C1535   1.272       .  A
O1529      V1532   1.878       .  S
O1529      C1534   1.257       .  A
O1530      V1532   1.892       .  S
O1530      C1533   1.261       .  A
V1531      V1532   2.086       .  T
C1533      C1564   1.494       .  S
C1534      C1552   1.460       .  S
C1535      C1660   1.495       .  S
C1536      C1537   1.481       .  S
C1537      C1538   1.405       .  A
C1537      C1542   1.412       .  A
C1538      C1539   1.404       .  A
C1538      H1547   1.085       .  S
C1539      C1540   1.412       .  A
C1539      S1543   1.804       .  S
C1540      C1541   1.407       .  A
C1541      C1542   1.407       .  A
C1541      H1548   1.086       .  S
C1542      S1544   1.804       .  S
S1543      H1546   1.406       .  S
S1544      H1545   1.406       .  S
C1550      C1551   1.391       .  A
C1551      C1552   1.404       .  A
C1551      S1555   1.804       .  S
C1552      C1553   1.403       .  A
C1553      C1554   1.398       .  A
C1553      H1560   1.084       .  S
S1555      H1558   1.405       .  S
S1556      H1557   1.407       .  S
C1561      C1562   1.397       .  A
C1561      C1566   1.414       .  A
C1562      H1571   1.087       .  S
C1563      C1564   1.423   1_455  A
C1563      S1567   1.801       .  S
C1564      C1565   1.405       .  A
C1565      H1572   1.085       .  S
C1566      S1568   1.804       .  S
S1567      H1570   1.408   1_455  S
S1568      H1569   1.402       .  S
C1574      C1575   1.403       .  A
C1575      C1576   1.409       .  A
C1575      S1579   1.808       .  S
C1576      C1577   1.409       .  A
C1577      C1578   1.405       .  A
C1577      H1584   1.084       .  S
S1579      H1582   1.407       .  S
S1580      H1581   1.408       .  S
C1585      C1586   1.410       .  A
C1585      C1590   1.414       .  A
C1586      H1595   1.083       .  S
C1587      C1588   1.407       .  A
C1587      S1591   1.802       .  S
C1588      C1589   1.406       .  A
C1589      H1596   1.086       .  S
C1590      S1592   1.801       .  S
S1591      H1594   1.407       .  S
S1592      H1593   1.408       .  S
C1597      C1598   1.403       .  A
C1597      C1602   1.414       .  A
C1598      C1599   1.407       .  A
C1598      H1607   1.082       .  S
C1599      C1600   1.415       .  A
C1599      S1603   1.803       .  S
C1600      C1601   1.403       .  A
C1601      C1602   1.405       .  A
C1601      H1608   1.081       .  S
C1602      S1604   1.803       .  S
S1603      H1606   1.406       .  S
S1604      H1605   1.406       .  S
C1609      C1610   1.405       .  A
C1609      C1614   1.415       .  A
C1610      C1611   1.410       .  A
C1610      H1619   1.085       .  S
C1611      C1612   1.419       .  A
C1611      S1615   1.803       .  S
C1612      C1613   1.405       .  A
C1613      C1614   1.406       .  A
C1613      H1620   1.085       .  S
C1614      S1616   1.799       .  S
S1615      H1618   1.407       .  S
S1616      H1617   1.404       .  S
C1621      C1622   1.406       .  A
C1621      C1626   1.411       .  A
C1622      C1623   1.403       .  A
C1622      H1631   1.084       .  S
C1623      C1624   1.410       .  A
C1623      S1627   1.804       .  S
C1624      C1625   1.406       .  A
C1625      C1626   1.405       .  A
C1625      H1632   1.085       .  S
C1626      S1628   1.804       .  S
S1627      H1630   1.405       .  S
S1628      H1629   1.406       .  S
C1633      C1634   1.409       .  A
C1633      C1638   1.410       .  A
C1634      C1635   1.393       .  A
C1634      H1643   1.084       .  S
C1637      C1638   1.390       .  A
C1638      S1640   1.802       .  S
S1639      H1642   1.408       .  S
S1640      H1641   1.407       .  S
C1645      C1646   1.401       .  A
C1645      C1650   1.418       .  A
C1646      C1647   1.402       .  A
C1646      H1655   1.081       .  S
C1647      C1648   1.421       .  A
C1647      S1651   1.811       .  S
C1648      C1649   1.403       .  A
C1649      C1650   1.402       .  A
C1649      H1656   1.081       .  S
C1650      S1652   1.810       .  S
S1651      H1654   1.406       .  S
S1652      H1653   1.406       .  S
C1657      C1658   1.402       .  A
C1657      C1662   1.417       .  A
C1658      C1659   1.406       .  A
C1658      H1667   1.083       .  S
C1659      C1660   1.419       .  A
C1659      S1663   1.803       .  S
C1660      C1661   1.406       .  A
C1661      C1662   1.408       .  A
C1661      H1668   1.083       .  S
C1662      S1664   1.803       .  S
S1663      H1666   1.408       .  S
S1664      H1665   1.404       .  S
C1670      C1671   1.401       .  A
C1671      C1672   1.408       .  A
C1671      S1675   1.809       .  S
C1672      C1673   1.406       .  A
C1673      C1674   1.400       .  A
C1673      H1680   1.084       .  S
S1675      H1678   1.407       .  S
S1676      H1677   1.408       .  S
C1681      C1682   1.400       .  A
C1681      C1686   1.419       .  A
C1682      C1683   1.399       .  A
C1682      H1691   1.082       .  S
C1683      C1684   1.416       .  A
C1683      S1687   1.809       .  S
C1684      C1685   1.398       .  A
C1685      C1686   1.394       .  A
C1685      H1692   1.083       .  S
C1686      S1688   1.804       .  S
S1687      H1690   1.407       .  S
S1688      H1689   1.407       .  S
C1693      C1694   1.407       .  A
C1693      C1698   1.410       .  A
C1694      C1695   1.409       .  A
C1694      H1703   1.084       .  S
C1695      C1696   1.412       .  A
C1695      S1699   1.800       .  S
C1696      C1697   1.405       .  A
C1697      C1698   1.398       .  A
C1697      H1704   1.084       .  S
C1698      S1700   1.805       .  S
S1699      H1702   1.405       .  S
S1700      H1701   1.407       .  S
C1705      C1706   1.404       .  A
C1705      C1710   1.414       .  A
C1706      C1707   1.405       .  A
C1706      H1715   1.083       .  S
C1707      C1708   1.415       .  A
C1707      S1711   1.802       .  S
C1708      C1709   1.406       .  A
C1709      C1710   1.406       .  A
C1709      H1716   1.083       .  S
C1710      S1712   1.804       .  S
S1711      H1714   1.404       .  S
S1712      H1713   1.406       .  S
C1717      C1718   1.410       .  A
C1717      C1722   1.418       .  A
C1718      C1719   1.410       .  A
C1718      H1727   1.083       .  S
C1719      C1720   1.413       .  A
C1719      S1723   1.804       .  S
C1720      C1721   1.406       .  A
C1721      C1722   1.409       .  A
C1721      H1728   1.083       .  S
C1722      S1724   1.801       .  S
S1723      H1726   1.406       .  S
S1724      H1725   1.406       .  S
C1729      C1730   1.406       .  A
C1729      C1734   1.410       .  A
C1730      C1731   1.406   1_554  A
C1730      H1739   1.084       .  S
C1731      C1732   1.412       .  A
C1731      S1735   1.804       .  S
C1732      C1733   1.405       .  A
C1733      C1734   1.407   1_556  A
C1733      H1740   1.082       .  S
C1734      S1736   1.803       .  S
S1735      H1738   1.403       .  S
S1736      H1737   1.407       .  S
C1741      C1742   1.401       .  A
C1741      C1746   1.417   1_655  A
C1742      H1751   1.083       .  S
C1743      C1744   1.420       .  A
C1743      S1747   1.804       .  S
C1744      C1745   1.405       .  A
C1745      H1752   1.081       .  S
C1746      S1748   1.810       .  S
S1747      H1750   1.406       .  S
S1748      H1749   1.407       .  S
C1753      C1754   1.410       .  A
C1753      C1758   1.413       .  A
C1754      C1755   1.392       .  A
C1754      H1763   1.082       .  S
C1755      C1756   1.407       .  A
C1755      S1759   1.805       .  S
C1756      C1757   1.402       .  A
C1757      C1758   1.392       .  A
C1757      H1764   1.084       .  S
C1758      S1760   1.801       .  S
S1759      H1762   1.403       .  S
S1760      H1761   1.408       .  S
C1765      C1766   1.409       .  A
C1765      C1770   1.415       .  A
C1766      C1767   1.408       .  A
C1766      H1775   1.084       .  S
C1767      C1768   1.414       .  A
C1767      S1771   1.805       .  S
C1768      C1769   1.404       .  A
C1769      C1770   1.403       .  A
C1769      H1776   1.084       .  S
C1770      S1772   1.802       .  S
S1771      H1774   1.406       .  S
S1772      H1773   1.405       .  S
C1777      C1778   1.412       .  A
C1777      C1782   1.413       .  A
C1778      C1779   1.408       .  A
C1778      H1787   1.083       .  S
C1779      C1780   1.414       .  A
C1779      S1783   1.801       .  S
C1780      C1781   1.412       .  A
C1781      C1782   1.406       .  A
C1781      H1788   1.083       .  S
C1782      S1784   1.802       .  S
S1783      H1786   1.407       .  S
S1784      H1785   1.408       .  S
C1789      C1790   1.402       .  A
C1789      C1794   1.404       .  A
C1790      H1799   1.086       .  S
C1791      C1792   1.407       .  A
C1791      S1795   1.800       .  S
C1792      C1793   1.408       .  A
C1793      H1800   1.084       .  S
C1794      S1796   1.803       .  S
S1795      H1798   1.407       .  S
S1796      H1797   1.403       .  S
C1801      C1802   1.403       .  A
C1801      C1806   1.423       .  A
C1802      C1803   1.394       .  A
C1802      H1811   1.083       .  S
C1803      C1804   1.416       .  A
C1803      S1807   1.806       .  S
C1804      C1805   1.400       .  A
C1805      C1806   1.404       .  A
C1805      H1812   1.082       .  S
C1806      S1808   1.810       .  S
S1807      H1810   1.400       .  S
S1808      H1809   1.407       .  S
C1813      C1814   1.406       .  A
C1813      C1818   1.411       .  A
C1814      C1815   1.408   1_554  A
C1814      H1823   1.083       .  S
C1815      C1816   1.413       .  A
C1815      S1819   1.802       .  S
C1816      C1817   1.404       .  A
C1817      C1818   1.401   1_556  A
C1817      H1824   1.084       .  S
C1818      S1820   1.805       .  S
S1819      H1822   1.405       .  S
S1820      H1821   1.407       .  S
