geometry optimzed in LAMMPS
_audit_creation_date              2020-12-01 
_audit_creation_method            'lammps2cif' 
_symmetry_space_group_name_H-M    'P1' 
_symmetry_Int_Tables_number       1 
_symmetry_cell_setting            triclinic 
loop_ 
_symmetry_equiv_pos_as_xyz 
  x,y,z 
_cell_length_a                    34.99006584 
_cell_length_b                    36.046838561115756 
_cell_length_c                    33.88696341959153 
_cell_angle_alpha                 90.06029338606498 
_cell_angle_beta                  90.25786517781003 
_cell_angle_gamma                 90.00384376340456 
loop_ 
_atom_site_label 
_atom_site_type_symbol 
_atom_site_fract_x 
_atom_site_fract_y 
_atom_site_fract_z 
_atom_site_charge 
C1          C  0.24974536  0.21182152  0.71850227     0.86200
C2          C  0.28347865  0.21120243  0.74778331    -0.54000
C3          C  0.28482802  0.24124653  0.77252656     0.09100
C4          C  0.25204664  0.26914890  0.76604389     0.20100
C5          C  0.21465745  0.21569027  0.74542938    -0.54800
C6          C  0.21578335  0.24539520  0.77043095     0.09200
C7          C  0.25297449  0.24907242  0.69732264    -0.54300
C8          C  0.25406308  0.27892711  0.72197103     0.09800
H9          H  0.30443733  0.18900101  0.74887556     0.14300
H10         H  0.25299371  0.29352929  0.78608722     0.00100
H11         H  0.19156776  0.19576859  0.74669175     0.14600
H12         H  0.25368419  0.25172092  0.66539029     0.14400
N13         N  0.26768344  0.03574852  0.58394862    -0.06400
N14         N  0.28087638  0.06510970  0.60289926    -0.58500
N15         N  0.23318780  0.45018130  0.58783804    -0.06100
N16         N  0.22083348  0.42501415  0.61301460    -0.60700
N17         N  0.27079092  0.45030934  0.58697602    -0.05700
N18         N  0.28475174  0.42524089  0.61148373    -0.58500
N19         N  0.23010699  0.03504327  0.58489029    -0.05400
N20         N  0.21695711  0.06387513  0.60461454    -0.61000
C21         C  0.24892811  0.08240446  0.61560129     0.95800
C22         C  0.25328035  0.40965249  0.62751729     0.95500
N23         N  0.16722226  0.44755442  0.48358166    -0.06600
N24         N  0.14839122  0.41810001  0.47056954    -0.59100
N25         N  0.16504755  0.03432501  0.52138617    -0.04700
N26         N  0.14727469  0.06382714  0.53560219    -0.60400
N27         N  0.16416379  0.03451506  0.48255690    -0.06600
N28         N  0.14573213  0.06421382  0.46958443    -0.59400
N29         N  0.16817743  0.44777522  0.52244941    -0.04400
N30         N  0.15000654  0.41851807  0.53662806    -0.60400
Mn31       Mn  0.19930084  0.49175678  0.55513103     1.18400
C32         C  0.13789290  0.40029603  0.50396233     0.97900
C33         C  0.13538058  0.08216087  0.50299310     0.98500
N34         N  0.33208915  0.44878516  0.51934078    -0.06600
N35         N  0.35012882  0.41916350  0.53275960    -0.62900
N36         N  0.32827415  0.03632245  0.47905865    -0.05400
N37         N  0.34480978  0.06626500  0.46455074    -0.63600
N38         N  0.32928173  0.03684082  0.51783428    -0.06100
N39         N  0.34657132  0.06722488  0.53060803    -0.63200
N40         N  0.33119574  0.44856290  0.48052086    -0.04800
N41         N  0.34859825  0.41885881  0.46662450    -0.63900
Mn42       Mn  0.30243118  0.49216230  0.55316692     1.10700
C43         C  0.36013076  0.40094382  0.49951744     0.99100
C44         C  0.35599422  0.08519082  0.49700329     0.99200
N45         N  0.22637016  0.03431599  0.41589145    -0.06200
N46         N  0.21285079  0.06207527  0.39462171    -0.61500
N47         N  0.26703268  0.44860616  0.41543767    -0.05500
N48         N  0.27973767  0.42204847  0.39200618    -0.58300
N49         N  0.22943953  0.44838061  0.41647348    -0.06800
N50         N  0.21581499  0.42142916  0.39410163    -0.61100
N51         N  0.26395933  0.03437809  0.41555497    -0.05800
N52         N  0.27683483  0.06215332  0.39422451    -0.58300
Mn53       Mn  0.19705361  0.49103045  0.44900284     1.20200
Mn54       Mn  0.30014166  0.49118837  0.44717793     1.10100
Cl55       Cl  0.24966944  0.49130391  0.50113202    -0.86300
C56         C  0.24474078  0.07918825  0.38139370     0.96100
C57         C  0.24744611  0.40526905  0.37900106     0.95900
N58         N  0.99703627  0.29926697  0.50797954    -0.36900
N59         N  0.43752997  0.24241421  0.49605429    -0.57500
N60         N  0.99651361  0.18525647  0.50534736    -0.36900
N61         N  0.05633806  0.24198332  0.50400639    -0.57500
C62         C  0.46669880  0.31982845  0.50464635     0.26700
C63         C  0.02823626  0.32023073  0.50005684     0.26700
C64         C  0.46460163  0.16440161  0.49999503     0.26700
C65         C  0.02765208  0.16407796  0.49780591     0.26700
C66         C  0.41575282  0.27293662  0.49074150     0.35300
C67         C  0.41482810  0.21281061  0.48891844     0.35300
C68         C  0.07877691  0.27208203  0.51019563     0.35300
C69         C  0.07850644  0.21161764  0.50970108     0.35300
C70         C  0.47837010  0.35432131  0.51845883    -0.22200
C71         C  0.01660550  0.35525054  0.48796520    -0.22200
C72         C  0.47558845  0.12929615  0.51237865    -0.22200
C73         C  0.01589661  0.12931437  0.48494819    -0.22200
C74         C  0.37879221  0.26271146  0.48049642    -0.23200
C75         C  0.37820581  0.22453791  0.47935807    -0.23200
C76         C  0.11561255  0.26077662  0.51942450    -0.23200
C77         C  0.11543099  0.22251167  0.51915966    -0.23200
C78         C  0.42822112  0.30963129  0.49771030    -0.18600
C79         C  0.06688710  0.30945722  0.50539660    -0.18600
C80         C  0.06630251  0.17439078  0.50420777    -0.18600
C81         C  0.42623120  0.17551452  0.49380948    -0.18600
H82         H  0.46049939  0.37741669  0.52713066     0.14300
H83         H  0.03451898  0.37844625  0.47975989     0.14300
H84         H  0.45727846  0.10617857  0.51987950     0.14300
H85         H  0.03372414  0.10600202  0.47687316     0.14300
H86         H  0.35469672  0.28083217  0.47493709     0.12600
H87         H  0.35359300  0.20739558  0.47273818     0.12600
H88         H  0.14009456  0.27826785  0.52547546     0.12600
H89         H  0.13975656  0.20475414  0.52493742     0.12600
H90         H  0.99705504  0.27282689  0.51981508     0.25900
H91         H  0.99662562  0.21152704  0.51760115     0.25900
C92         C  0.24793798  0.20790305  0.27864789     0.86200
C93         C  0.21561211  0.21092548  0.24813154    -0.54000
C94         C  0.21650051  0.24262899  0.22604756     0.09100
C95         C  0.25009977  0.26866981  0.23647139     0.20100
C96         C  0.28425052  0.21209560  0.25376833    -0.54800
C97         C  0.28547662  0.24362703  0.23143527     0.09200
C98         C  0.24543660  0.24333427  0.30301515    -0.54300
C99         C  0.24667414  0.27507835  0.28135823     0.09800
H100        H  0.19419558  0.18954729  0.24360607     0.14300
H101        H  0.25087163  0.29447691  0.21862332     0.00100
H102        H  0.30632095  0.19100860  0.25220242     0.14600
H103        H  0.24314498  0.24335011  0.33499360     0.14400
N104        N  0.24939459  0.45047289  0.00641978    -0.36900
N105        N  0.30900473  0.00765914  0.00216312    -0.57500
N106        N  0.24983247  0.06492958  0.00265324    -0.36900
N107        N  0.19124319  0.00743765  0.99905174    -0.57500
C108        C  0.28007340  0.42886799  0.99888417     0.26700
C109        C  0.21784757  0.43017456  0.99835785     0.26700
C110        C  0.28099612  0.08578202  0.99473180     0.26700
C111        C  0.21860475  0.08560200  0.99418007     0.26700
C112        C  0.33098880  0.47582620  0.01163452     0.35300
C113        C  0.33144543  0.03791615  0.00655764     0.35300
C114        C  0.16915130  0.47987036  0.00618229     0.35300
C115        C  0.16860261  0.03734790  0.00456761     0.35300
C116        C  0.26785215  0.39411957  0.98646464    -0.22200
C117        C  0.22852095  0.39490695  0.98627029    -0.22200
C118        C  0.26940066  0.12044219  0.98151700    -0.22200
C119        C  0.23002365  0.12033083  0.98118606    -0.22200
C120        C  0.36782345  0.48581194  0.02258787    -0.23200
C121        C  0.36873289  0.02717395  0.01464167    -0.23200
C122        C  0.13246117  0.49237525  0.01387037    -0.23200
C123        C  0.13163335  0.02615417  0.01311866    -0.23200
C124        C  0.31862773  0.43914963  0.00469710    -0.18600
C125        C  0.17981698  0.44225130  0.00318267    -0.18600
C126        C  0.18022218  0.07455353  0.99966907    -0.18600
C127        C  0.31947883  0.07497689  0.00071013    -0.18600
H128        H  0.28542578  0.37055503  0.97861555     0.14300
H129        H  0.20992005  0.37213744  0.97810271     0.14300
H130        H  0.28743550  0.14347751  0.97309257     0.14300
H131        H  0.21187442  0.14323616  0.97245330     0.14300
H132        H  0.39163678  0.46761107  0.02904988     0.12600
H133        H  0.39341673  0.04484211  0.01892099     0.12600
H134        H  0.10737039  0.47587570  0.02014434     0.12600
H135        H  0.10698231  0.04353356  0.01854034     0.12600
H136        H  0.24986067  0.47699239  0.01833934     0.25900
H137        H  0.24983191  0.03871471  0.01531785     0.25900
N138        N  0.04496039  0.27755972  0.91517557    -0.06400
N139        N  0.07386702  0.29000173  0.89380616    -0.58500
N140        N  0.45703034  0.23869124  0.91663388    -0.06100
N141        N  0.42781161  0.22469154  0.89703257    -0.60700
N142        N  0.45637290  0.27514224  0.91556528    -0.05700
N143        N  0.42657642  0.28673134  0.89482950    -0.58500
N144        N  0.04475765  0.24108058  0.91558329    -0.05400
N145        N  0.07342536  0.22796133  0.89472339    -0.61000
C146        C  0.09146604  0.25861835  0.88132796     0.95800
C147        C  0.40900568  0.25486197  0.88359446     0.95500
N148        N  0.45609190  0.17862795  0.02048357    -0.06600
N149        N  0.42634321  0.15982003  0.03364020    -0.59100
N150        N  0.04433981  0.17912214  0.98050359    -0.04700
N151        N  0.07373979  0.16008621  0.96698696    -0.60400
N152        N  0.04376231  0.17848262  0.01931824    -0.06600
N153        N  0.07285525  0.15894539  0.03309705    -0.59400
N154        N  0.45672776  0.17823523  0.98168876    -0.04400
N155        N  0.42744416  0.15918351  0.96755531    -0.60400
Mn156      Mn  0.50112807  0.20808775  0.94862798     1.18400
C157        C  0.40881711  0.14802887  0.00028574     0.97900
C158        C  0.09121013  0.14785857  0.00009515     0.98500
N159        N  0.45570060  0.33713822  0.98094539    -0.06600
N160        N  0.42583441  0.35550523  0.96713823    -0.62900
N161        N  0.04394177  0.33769212  0.02086761    -0.05400
N162        N  0.07300142  0.35691256  0.03513895    -0.63600
N163        N  0.04428081  0.33806043  0.98202164    -0.06100
N164        N  0.07357125  0.35752747  0.96901031    -0.63200
N165        N  0.45567911  0.33736298  0.01979837    -0.05000
N166        N  0.42590809  0.35581184  0.03326263    -0.63900
Mn167      Mn  0.50038251  0.30776649  0.94741049     1.10700
C168        C  0.40765364  0.36675140  0.00014782     0.99100
C169        C  0.09112327  0.36888540  0.00245438     0.99200
N170        N  0.04277018  0.23962413  0.08512928    -0.06200
N171        N  0.07228622  0.22637053  0.10484449    -0.61500
N172        N  0.45527620  0.27696931  0.08620875    -0.05500
N173        N  0.42653665  0.28925255  0.10789245    -0.58300
N174        N  0.45554589  0.24049085  0.08555493    -0.06800
N175        N  0.42706528  0.22719257  0.10650069    -0.61100
N176        N  0.04298920  0.27609507  0.08597374    -0.05800
N177        N  0.07255923  0.28844477  0.10654396    -0.58300
Mn178      Mn  0.49994933  0.20886679  0.05458493     1.20200
Mn179      Mn  0.49959539  0.30858785  0.05445997     1.10100
Cl180      Cl  0.50036987  0.25835108  0.00128090    -0.86300
C181        C  0.09062101  0.25704305  0.11802355     0.96100
C182        C  0.40912079  0.25777074  0.12023552     0.95900
C183        C  0.37543843  0.12476799  0.99972506    -0.13600
C184        C  0.34891213  0.10334996  0.99973351    -0.15100
C185        C  0.14979794  0.41466531  0.00330094    -0.13600
C186        C  0.12365899  0.39295406  0.00312961    -0.15100
C187        C  0.37414543  0.38950320  0.00034097    -0.13600
C188        C  0.34769837  0.41076975  0.00206920    -0.15100
C189        C  0.15070070  0.10279084  0.99954917    -0.13600
C190        C  0.12427585  0.12427360  0.99999461    -0.15100
C191        C  0.33212724  0.28382954  0.19429091    -0.13600
C192        C  0.31534639  0.24902938  0.20107959     0.08500
C193        C  0.32788228  0.21829567  0.17918846    -0.13600
C194        C  0.35769557  0.22170704  0.15248326    -0.13600
C195        C  0.37567161  0.25600687  0.14664708     0.08500
C196        C  0.36225344  0.28730373  0.16723728    -0.13600
H197        H  0.32279321  0.30793953  0.21071781     0.12500
H198        H  0.31470835  0.19133849  0.18285826     0.12500
H199        H  0.36694396  0.19720579  0.13665339     0.12500
H200        H  0.37561411  0.31411380  0.16316442     0.12500
C201        C  0.17728585  0.21909785  0.17000386    -0.13600
C202        C  0.18835851  0.24899266  0.19405014     0.08500
C203        C  0.16968131  0.28322780  0.18985536    -0.13600
C204        C  0.13850382  0.28660248  0.16389725    -0.13600
C205        C  0.12586097  0.25573434  0.14199959     0.08500
C206        C  0.14628003  0.22237088  0.14443319    -0.13600
H207        H  0.19188984  0.19266487  0.17197522     0.12500
H208        H  0.17782912  0.30663378  0.20810875     0.12500
H209        H  0.12332993  0.31274071  0.16224463     0.12500
H210        H  0.13768924  0.19839013  0.12726680     0.12500
C211        C  0.21395286  0.35096849  0.34936206    -0.13600
C212        C  0.24650499  0.37363572  0.35132908     0.08500
C213        C  0.27791041  0.36554754  0.32701993    -0.13600
C214        C  0.27694971  0.33478651  0.30170481    -0.13600
C215        C  0.24491102  0.31146326  0.30104902     0.08500
C216        C  0.21334409  0.31992129  0.32476176    -0.13600
H217        H  0.18944599  0.35651331  0.36786783     0.12500
H218        H  0.30328021  0.38274201  0.32791335     0.12500
H219        H  0.30183970  0.32814276  0.28416932     0.12500
H220        H  0.18865831  0.30177661  0.32506670     0.12500
C221        C  0.21085151  0.12695853  0.34093180    -0.13600
C222        C  0.24499050  0.11196020  0.35566004     0.08500
C223        C  0.27982916  0.12869201  0.34591046    -0.13600
C224        C  0.28067620  0.15946989  0.32121099    -0.13600
C225        C  0.24677762  0.17356935  0.30451425     0.08500
C226        C  0.21169276  0.15774807  0.31598396    -0.13600
H227        H  0.18352595  0.11501889  0.34879906     0.12500
H228        H  0.30654680  0.11824400  0.35772217     0.12500
H229        H  0.30802820  0.17238638  0.31571364     0.12500
H230        H  0.18476682  0.16930656  0.30616793     0.12500
C231        C  0.38060108  0.36656449  0.49905990    -0.13600
C232        C  0.40024638  0.33916221  0.49832390    -0.15100
C233        C  0.11430859  0.11678221  0.50381145    -0.13600
C234        C  0.09452966  0.14445929  0.50432546    -0.15100
C235        C  0.11591456  0.36623947  0.50469685    -0.13600
C236        C  0.09549606  0.33902086  0.50524114    -0.15100
C237        C  0.39724891  0.14661907  0.49438483    -0.13600
C238        C  0.37683957  0.11960450  0.49571600    -0.15100
C239        C  0.33228093  0.28009411  0.80934420    -0.13600
C240        C  0.31453274  0.24563699  0.80331990     0.08500
C241        C  0.32599515  0.21507686  0.82610021    -0.13600
C242        C  0.35582930  0.21854548  0.85330291    -0.13600
C243        C  0.37483476  0.25260703  0.85807794     0.08500
C244        C  0.36229162  0.28356060  0.83652430    -0.13600
H245        H  0.32389009  0.30397959  0.79199286     0.12500
H246        H  0.31210176  0.18841453  0.82256250     0.12500
H247        H  0.36453288  0.19435468  0.87002039     0.12500
H248        H  0.37649356  0.31009089  0.83969930     0.12500
C249        C  0.17199031  0.21913684  0.82095851    -0.13600
C250        C  0.18647255  0.25047667  0.80152942     0.08500
C251        C  0.17142238  0.28556327  0.81071959    -0.13600
C252        C  0.14091726  0.28881047  0.83743113    -0.13600
C253        C  0.12537409  0.25698392  0.85533014     0.08500
C254        C  0.14181800  0.22232257  0.84730399    -0.13600
H255        H  0.18375037  0.19184099  0.81542885     0.12500
H256        H  0.18223832  0.31014700  0.79620419     0.12500
H257        H  0.12892149  0.31593784  0.84329264     0.12500
H258        H  0.13099459  0.19733339  0.86100202     0.12500
C259        C  0.22027925  0.33433633  0.69690792    -0.13600
C260        C  0.25484947  0.31677360  0.70608024     0.08500
C261        C  0.28932348  0.33196263  0.69279116    -0.13600
C262        C  0.28902393  0.36338921  0.66861625    -0.13600
C263        C  0.25416490  0.37960029  0.65709667     0.08500
C264        C  0.21990289  0.36556748  0.67256793    -0.13600
H265        H  0.19344925  0.32250758  0.70659580     0.12500
H266        H  0.31620034  0.31831844  0.69933789     0.12500
H267        H  0.31587993  0.37387652  0.65744056     0.12500
H268        H  0.19267714  0.37772556  0.66449686     0.12500
C269        C  0.28272698  0.16761561  0.67106897    -0.13600
C270        C  0.24887187  0.17922695  0.68973418     0.08500
C271        C  0.21452361  0.16090224  0.67977013    -0.13600
C272        C  0.21464598  0.12986849  0.65525445    -0.13600
C273        C  0.24887436  0.11674103  0.63924678     0.08500
C274        C  0.28282678  0.13640968  0.64647154    -0.13600
H275        H  0.30933905  0.18219583  0.67626063     0.12500
H276        H  0.18712355  0.17035990  0.69016514     0.12500
H277        H  0.18784210  0.11591280  0.64916866     0.12500
H278        H  0.30950990  0.12745081  0.63349008     0.12500
C279        C  0.25504803  0.71053604  0.71823055     0.86200
C280        C  0.28762621  0.71317252  0.74862779    -0.54000
C281        C  0.28588800  0.74367223  0.77245607     0.09100
C282        C  0.25163594  0.76925432  0.76359352     0.20100
C283        C  0.21879280  0.71262591  0.74354652    -0.54800
C284        C  0.21682080  0.74332857  0.76720085     0.09200
C285        C  0.25634098  0.74712830  0.69578491    -0.54300
C286        C  0.25464454  0.77768317  0.71924638     0.09800
H287        H  0.30970714  0.69248400  0.75253904     0.14300
H288        H  0.25021628  0.79423113  0.78274998     0.00100
H289        H  0.19685473  0.69130045  0.74327544     0.14600
H290        H  0.25823586  0.74881143  0.66382632     0.14400
N291        N  0.27033043  0.53489878  0.58433816    -0.06400
N292        N  0.28424933  0.56366497  0.60353955    -0.58500
N293        N  0.23163664  0.94971414  0.58574970    -0.06100
N294        N  0.21950362  0.92275338  0.60881735    -0.60700
N295        N  0.26922488  0.95039571  0.58507126    -0.05700
N296        N  0.28343944  0.92385567  0.60755457    -0.58500
N297        N  0.23274454  0.53528797  0.58481606    -0.05400
N298        N  0.22024431  0.56460788  0.60419654    -0.61000
C299        C  0.25274689  0.58194466  0.61563551     0.95800
C300        C  0.25209859  0.90686625  0.62219444     0.95500
N301        N  0.16586443  0.94766059  0.48224888    -0.06600
N302        N  0.14830413  0.91768036  0.46885796    -0.59100
N303        N  0.16748502  0.53438894  0.52173438    -0.04700
N304        N  0.14941545  0.56384141  0.53560866    -0.60400
N305        N  0.16674611  0.53428612  0.48292842    -0.06600
N306        N  0.14812770  0.56367927  0.46956353    -0.59400
N307        N  0.16687074  0.94755147  0.52108905    -0.04400
N308        N  0.14997564  0.91747499  0.53493115    -0.60400
Mn309      Mn  0.19727141  0.99152370  0.55428452     1.18400
C310        C  0.13864618  0.89920617  0.50203295     0.97900
C311        C  0.13754259  0.58177850  0.50275357     0.98500
N312        N  0.33107550  0.95005988  0.51858052    -0.06600
N313        N  0.34980898  0.92077386  0.53203657    -0.62900
N314        N  0.33109460  0.53487333  0.47983005    -0.05400
N315        N  0.34800125  0.56473960  0.46551642    -0.63600
N316        N  0.33197913  0.53530101  0.51861372    -0.06100
N317        N  0.34954261  0.56549462  0.53155091    -0.63200
N318        N  0.32999472  0.94968426  0.47977270    -0.04800
N319        N  0.34799210  0.92015484  0.46598455    -0.63900
Mn320      Mn  0.30045141  0.99323581  0.55232230     1.10700
C321        C  0.36016219  0.90246521  0.49889871     0.99100
C322        C  0.35932456  0.58348462  0.49807817     0.99200
N323        N  0.22949920  0.53410941  0.41697659    -0.06200
N324        N  0.21671727  0.56327425  0.39732287    -0.61500
N325        N  0.26521077  0.94963740  0.41539156    -0.05500
N326        N  0.27883105  0.92322322  0.39255940    -0.58300
N327        N  0.22760317  0.94926251  0.41510197    -0.06800
N328        N  0.21486976  0.92250757  0.39178615    -0.61100
N329        N  0.26707352  0.53339107  0.41641290    -0.05800
N330        N  0.28066454  0.56170018  0.39644641    -0.58300
Mn331      Mn  0.19473122  0.99142571  0.44803746     1.20200
Mn332      Mn  0.29786669  0.99239604  0.44662956     1.10100
Cl333      Cl  0.24754168  0.99203805  0.50031400    -0.86300
C334        C  0.24907448  0.58013480  0.38473389     0.96100
C335        C  0.24722633  0.90649610  0.37802556     0.95900
N336        N  0.99841453  0.79879838  0.50498440    -0.36900
N337        N  0.43850816  0.74282818  0.49444749    -0.57500
N338        N  0.99789346  0.68442115  0.50372201    -0.36900
N339        N  0.05786277  0.74091256  0.50222320    -0.57500
C340        C  0.46772383  0.82050167  0.49248538     0.26700
C341        C  0.02990206  0.82016434  0.50008183     0.26700
C342        C  0.46611851  0.66481218  0.48673804     0.26700
C343        C  0.02897620  0.66258935  0.49821732     0.26700
C344        C  0.41619643  0.77306266  0.49989026     0.35300
C345        C  0.41570383  0.71272264  0.49826044     0.35300
C346        C  0.08076483  0.77099266  0.50578158     0.35300
C347        C  0.08043397  0.71057715  0.50584831     0.35300
C348        C  0.47988698  0.85540762  0.48075986    -0.22200
C349        C  0.01860712  0.85644039  0.49270252    -0.22200
C350        C  0.47729162  0.63015017  0.47315471    -0.22200
C351        C  0.01704897  0.62694239  0.48875071    -0.22200
C352        C  0.37875828  0.76213534  0.50636770    -0.23200
C353        C  0.37845986  0.72391601  0.50541847    -0.23200
C354        C  0.11832814  0.75966964  0.51111779    -0.23200
C355        C  0.11810451  0.72146641  0.51124118    -0.23200
C356        C  0.42890870  0.81028964  0.49709102    -0.18600
C357        C  0.06859450  0.80846881  0.50301346    -0.18600
C358        C  0.06779879  0.67327442  0.50271297    -0.18600
C359        C  0.42774261  0.67545333  0.49346864    -0.18600
H360        H  0.46233342  0.87889799  0.47252102     0.14300
H361        H  0.03668501  0.88030139  0.48760483     0.14300
H362        H  0.45906296  0.60722793  0.46459193     0.14300
H363        H  0.03472510  0.60296926  0.48276539     0.14300
H364        H  0.35419936  0.77983925  0.51100262     0.12600
H365        H  0.35360735  0.70640095  0.50911179     0.12600
H366        H  0.14332075  0.77710652  0.51447828     0.12600
H367        H  0.14288061  0.70375500  0.51462350     0.12600
H368        H  0.99822104  0.77117645  0.51249788     0.25900
H369        H  0.99801487  0.71159290  0.51308026     0.25900
C370        C  0.25370092  0.70924557  0.28236964     0.86200
C371        C  0.21914361  0.71060658  0.25435687    -0.54000
C372        C  0.21776406  0.74114720  0.23032126     0.09100
C373        C  0.25172754  0.76794439  0.23692044     0.20100
C374        C  0.28811744  0.71272733  0.25458405    -0.54800
C375        C  0.28718549  0.74321439  0.23067801     0.09200
C376        C  0.25253002  0.74574155  0.30494535    -0.54300
C377        C  0.25152395  0.77635037  0.28155963     0.09800
H378        H  0.19757242  0.68899408  0.25386351     0.14300
H379        H  0.25129874  0.79297368  0.21788705     0.00100
H380        H  0.31068075  0.69230563  0.25221143     0.14600
H381        H  0.25269367  0.74732976  0.33698436     0.14400
N382        N  0.25046467  0.95012789  0.00398620    -0.36900
N383        N  0.30970363  0.50642766  0.00496460    -0.57500
N384        N  0.25292652  0.56496591  0.00262642    -0.36900
N385        N  0.19255707  0.50885253  0.99884981    -0.57500
C386        C  0.28180069  0.92888446  0.99845505     0.26700
C387        C  0.21950905  0.92882862  0.99656630     0.26700
C388        C  0.28506174  0.58457578  0.99532365     0.26700
C389        C  0.22292875  0.58581097  0.99076471     0.26700
C390        C  0.33171350  0.97778903  0.00789331     0.35300
C391        C  0.33270299  0.53582065  0.01194997     0.35300
C392        C  0.16898362  0.97730298  0.00462603     0.35300
C393        C  0.17104519  0.53975877  0.00240696     0.35300
C394        C  0.27058968  0.89323454  0.98806274    -0.22200
C395        C  0.23125974  0.89320883  0.98681984    -0.22200
C396        C  0.27537495  0.61859046  0.97898169    -0.22200
C397        C  0.23608036  0.61935026  0.97603986    -0.22200
C398        C  0.36890258  0.98915021  0.01548155    -0.23200
C399        C  0.36886557  0.52383810  0.02295499    -0.23200
C400        C  0.13185653  0.98813184  0.01309686    -0.23200
C401        C  0.13363663  0.53032835  0.01141732    -0.23200
C402        C  0.32009336  0.94040996  0.00385206    -0.18600
C403        C  0.18104143  0.94016603  0.00017705    -0.18600
C404        C  0.18410334  0.57616454  0.99527476    -0.18600
C405        C  0.32260855  0.57305237  0.00462971    -0.18600
H406        H  0.28882138  0.86964954  0.98209371     0.14300
H407        H  0.21337628  0.86958447  0.97978261     0.14300
H408        H  0.29459612  0.64057777  0.97017865     0.14300
H409        H  0.21911783  0.64206960  0.96460306     0.14300
H410        H  0.39373122  0.97186656  0.02056140     0.12600
H411        H  0.39368289  0.54069423  0.02957356     0.12600
H412        H  0.10741904  0.97049768  0.01860875     0.12600
H413        H  0.10960230  0.54881413  0.01551345     0.12600
H414        H  0.25011521  0.97727126  0.01414352     0.25900
H415        H  0.25138643  0.53967241  0.01713711     0.25900
N416        N  0.04567014  0.77660508  0.91111072    -0.06400
N417        N  0.07405574  0.78904358  0.88900460    -0.58500
N418        N  0.45630543  0.73952893  0.91820342    -0.06100
N419        N  0.42747476  0.72610782  0.89754460    -0.60700
N420        N  0.45599166  0.77601698  0.91748489    -0.05700
N421        N  0.42689010  0.78819290  0.89611072    -0.58500
N422        N  0.04571743  0.74014048  0.91170194    -0.05400
N423        N  0.07405209  0.72698813  0.89047059    -0.61000
C424        C  0.09157145  0.75760499  0.87646304     0.95800
C425        C  0.40929443  0.75668329  0.88401746     0.95500
N426        N  0.45948094  0.67706187  0.02196609    -0.06600
N427        N  0.43143943  0.65652802  0.03606165    -0.59100
N428        N  0.04742960  0.67882785  0.97615437    -0.04700
N429        N  0.07707741  0.66081735  0.96174409    -0.60400
N430        N  0.04804948  0.67831594  0.01495958    -0.06600
N431        N  0.07819066  0.65984493  0.02787541    -0.59400
N432        N  0.45862047  0.67723216  0.98316680    -0.04400
N433        N  0.42996204  0.65680066  0.96993839    -0.60400
Mn434      Mn  0.50125213  0.70838172  0.94907281     1.18400
C435        C  0.41335605  0.64426212  0.00326852     0.97900
C436        C  0.09591694  0.64937040  0.99431911     0.98500
N437        N  0.45654330  0.83719473  0.98355575    -0.06600
N438        N  0.42703337  0.85631729  0.97020036    -0.62900
N439        N  0.04541150  0.83649582  0.01719928    -0.05400
N440        N  0.07475852  0.85553505  0.03101165    -0.63600
N441        N  0.04511101  0.83696101  0.97833458    -0.06100
N442        N  0.07424205  0.85633160  0.96486014    -0.63200
N443        N  0.45704421  0.83707503  0.02241479    -0.05000
N444        N  0.42782239  0.85615703  0.03632257    -0.63900
Mn445      Mn  0.50028002  0.80812254  0.94904300     1.10700
C446        C  0.40946021  0.86775587  0.00342611     0.99100
C447        C  0.09233314  0.86749108  0.99803950     0.99200
N448        N  0.04709873  0.73837691  0.08177737    -0.06200
N449        N  0.07535218  0.72492476  0.10318331    -0.61500
N450        N  0.45862035  0.77548356  0.08795631    -0.05500
N451        N  0.42941139  0.78766419  0.10893822    -0.58300
N452        N  0.45905506  0.73899832  0.08719793    -0.06800
N453        N  0.43012329  0.72559428  0.10747775    -0.61100
N454        N  0.04709207  0.77483329  0.08299625    -0.05800
N455        N  0.07560122  0.78692937  0.10548425    -0.58300
Mn456      Mn  0.50332314  0.70799559  0.05496355     1.20200
Mn457      Mn  0.50202376  0.80768571  0.05594923     1.10100
Cl458      Cl  0.50160611  0.75805849  0.00225814    -0.86300
C459        C  0.09305596  0.75532477  0.11779560     0.96100
C460        C  0.41183757  0.75617707  0.12086470     0.95900
C461        C  0.38019666  0.62087221  0.00378287    -0.13600
C462        C  0.35309201  0.60023834  0.00416055    -0.15100
C463        C  0.15172270  0.91204028  0.99891855    -0.13600
C464        C  0.12537081  0.89069093  0.99828967    -0.15100
C465        C  0.37627295  0.89106273  0.00368683    -0.13600
C466        C  0.34975626  0.91238277  0.00377385    -0.15100
C467        C  0.15571637  0.60519509  0.99315332    -0.13600
C468        C  0.12944309  0.62670878  0.99328898    -0.15100
C469        C  0.33339871  0.78318004  0.19277404    -0.13600
C470        C  0.31616776  0.74857245  0.19939359     0.08500
C471        C  0.32854654  0.71769649  0.17762032    -0.13600
C472        C  0.35891159  0.72068937  0.15146049    -0.13600
C473        C  0.37756109  0.75471083  0.14614203     0.08500
C474        C  0.36401412  0.78624058  0.16626878    -0.13600
H475        H  0.32428736  0.80736104  0.20923121     0.12500
H476        H  0.31511922  0.69086979  0.18140946     0.12500
H477        H  0.36823160  0.69606955  0.13588724     0.12500
H478        H  0.37783034  0.81287625  0.16249770     0.12500
C479        C  0.16995127  0.71446525  0.18289525    -0.13600
C480        C  0.18726354  0.74592661  0.19980405     0.08500
C481        C  0.17451735  0.78125150  0.18789451    -0.13600
C482        C  0.14417189  0.78481134  0.16075233    -0.13600
C483        C  0.12622837  0.75308199  0.14509713     0.08500
C484        C  0.13981815  0.71799512  0.15623998    -0.13600
H485        H  0.17968118  0.68678349  0.19005887     0.12500
H486        H  0.18717664  0.80606876  0.20031623     0.12500
H487        H  0.13441815  0.81224286  0.15249776     0.12500
H488        H  0.12699119  0.69294454  0.14449456     0.12500
C489        C  0.21548570  0.86329366  0.32991955    -0.13600
C490        C  0.24850176  0.87518972  0.35003262     0.08500
C491        C  0.28320935  0.85661324  0.34358942    -0.13600
C492        C  0.28460143  0.82580256  0.31876082    -0.13600
C493        C  0.25149738  0.81341171  0.29950268     0.08500
C494        C  0.21702647  0.83256397  0.30465884    -0.13600
H495        H  0.18843155  0.87724733  0.33432378     0.12500
H496        H  0.30906414  0.86510014  0.35879929     0.12500
H497        H  0.31116940  0.81062069  0.31583314     0.12500
H498        H  0.19104391  0.82261061  0.29073726     0.12500
C499        C  0.21760247  0.63520865  0.35382940    -0.13600
C500        C  0.25042495  0.61385296  0.36041613     0.08500
C501        C  0.28510741  0.62484074  0.34345881    -0.13600
C502        C  0.28666136  0.65562193  0.31873334    -0.13600
C503        C  0.25337258  0.67606976  0.31008358     0.08500
C504        C  0.21923577  0.66637710  0.32946291    -0.13600
H505        H  0.19072356  0.62782962  0.36745837     0.12500
H506        H  0.31114103  0.60939060  0.34895974     0.12500
H507        H  0.31426010  0.66330717  0.30728829     0.12500
H508        H  0.19352338  0.68261348  0.32516823     0.12500
C509        C  0.38131805  0.86801561  0.49864385    -0.13600
C510        C  0.40100765  0.84036004  0.49804469    -0.15100
C511        C  0.11611347  0.61606276  0.50308536    -0.13600
C512        C  0.09605758  0.64347663  0.50311972    -0.15100
C513        C  0.11771724  0.86476423  0.50232423    -0.13600
C514        C  0.09743062  0.83759726  0.50266036    -0.15100
C515        C  0.39960844  0.64572497  0.49538266    -0.13600
C516        C  0.37990829  0.61816772  0.49704119    -0.15100
C517        C  0.33113866  0.78362273  0.81148064    -0.13600
C518        C  0.31380686  0.74907191  0.80482796     0.08500
C519        C  0.32586655  0.71822205  0.82686654    -0.13600
C520        C  0.35631550  0.72116791  0.85316253    -0.13600
C521        C  0.37511016  0.75515814  0.85846541     0.08500
C522        C  0.36172696  0.78666173  0.83819843    -0.13600
H523        H  0.32228545  0.80772312  0.79471331     0.12500
H524        H  0.31233553  0.69143004  0.82295788     0.12500
H525        H  0.36558562  0.69656290  0.86883084     0.12500
H526        H  0.37571050  0.81323572  0.84195914     0.12500
C527        C  0.17410640  0.71814081  0.81911327    -0.13600
C528        C  0.18581132  0.74842623  0.79624446     0.08500
C529        C  0.16751648  0.78281250  0.80107356    -0.13600
C530        C  0.13710744  0.78644665  0.82773442    -0.13600
C531        C  0.12495641  0.75573815  0.84995907     0.08500
C532        C  0.14412366  0.72176629  0.84567090    -0.13600
H533        H  0.18825912  0.69153137  0.81646954     0.12500
H534        H  0.17610305  0.80648056  0.78355878     0.12500
H535        H  0.12266537  0.81289334  0.83036852     0.12500
H536        H  0.13573858  0.69771355  0.86269404     0.12500
C537        C  0.22008484  0.83193234  0.69254348    -0.13600
C538        C  0.25485474  0.81476153  0.70169567     0.08500
C539        C  0.28898317  0.82895500  0.68642206    -0.13600
C540        C  0.28824896  0.85953099  0.66117101    -0.13600
C541        C  0.25326187  0.87594800  0.65058688     0.08500
C542        C  0.21925789  0.86232415  0.66705756    -0.13600
H543        H  0.19346836  0.82055421  0.70338700     0.12500
H544        H  0.31592526  0.81528062  0.69261292     0.12500
H545        H  0.31487000  0.86951638  0.64893623     0.12500
H546        H  0.19193236  0.87453432  0.65945154     0.12500
C547        C  0.28841812  0.65523967  0.68542038    -0.13600
C548        C  0.25570696  0.67754088  0.69038757     0.08500
C549        C  0.22310220  0.66979997  0.66728879    -0.13600
C550        C  0.22202897  0.63878381  0.64268545    -0.13600
C551        C  0.25402644  0.61566154  0.63972878     0.08500
C552        C  0.28747273  0.62461662  0.66044260    -0.13600
H553        H  0.31518410  0.66121075  0.69993672     0.12500
H554        H  0.19808422  0.68740990  0.66895179     0.12500
H555        H  0.19622697  0.63285640  0.62606361     0.12500
H556        H  0.31283001  0.60755504  0.65786833     0.12500
C557        C  0.75253546  0.21154026  0.71916442     0.86200
C558        C  0.78718251  0.21514720  0.74701800    -0.54000
C559        C  0.78617521  0.24567661  0.77083614     0.09100
C560        C  0.75065212  0.27020082  0.76482030     0.20100
C561        C  0.71822552  0.21271692  0.74723979    -0.54800
C562        C  0.71690327  0.24331451  0.77122866     0.09200
C563        C  0.75079976  0.24818102  0.69674369    -0.54300
C564        C  0.74982153  0.27872456  0.72037348     0.09800
H565        H  0.80972957  0.19471900  0.74984955     0.14300
H566        H  0.75012860  0.29515319  0.78405348     0.00100
H567        H  0.69668507  0.19106667  0.74781380     0.14600
H568        H  0.74997850  0.24987883  0.66472924     0.14400
N569        N  0.76492863  0.03506198  0.58506413    -0.06400
N570        N  0.77859413  0.06342355  0.60513599    -0.58500
N571        N  0.72605325  0.45137909  0.58722296    -0.06100
N572        N  0.71250929  0.42527576  0.61062050    -0.60700
N573        N  0.76362201  0.45193338  0.58879081    -0.05700
N574        N  0.77642619  0.42647144  0.61341389    -0.58500
N575        N  0.72734928  0.03587673  0.58437296    -0.05400
N576        N  0.71465656  0.06508304  0.60399569    -0.61000
C577        C  0.74706722  0.08195144  0.61674728     0.95800
C578        C  0.74429041  0.41004902  0.62677566     0.95500
N579        N  0.66651751  0.44791800  0.47955623    -0.06600
N580        N  0.64923921  0.41794333  0.46568914    -0.59100
N581        N  0.66421066  0.03523389  0.51829994    -0.04700
N582        N  0.64583784  0.06481337  0.53141121    -0.60400
N583        N  0.66453267  0.03483906  0.47947875    -0.06600
N584        N  0.64642063  0.06420788  0.46535463    -0.59400
N585        N  0.66519878  0.44847521  0.51839585    -0.04400
N586        N  0.64700024  0.41890793  0.53172222    -0.60400
Mn587      Mn  0.69401320  0.49280002  0.55263862     1.18400
C588        C  0.63728828  0.40019724  0.49855260     0.97900
C589        C  0.63496964  0.08254241  0.49806629     0.98500
N590        N  0.82848151  0.44922125  0.52514863    -0.06600
N591        N  0.84569259  0.41958586  0.53982419    -0.62900
N592        N  0.82874513  0.03598981  0.48271334    -0.05400
N593        N  0.84616223  0.06602383  0.46946616    -0.63600
N594        N  0.82842161  0.03588389  0.52150872    -0.06100
N595        N  0.84555496  0.06586925  0.53552243    -0.63200
N596        N  0.82967230  0.44870541  0.48633426    -0.04800
N597        N  0.84771691  0.41877485  0.47376920    -0.63900
Mn598      Mn  0.79714682  0.49335074  0.55673434     1.10700
C599        C  0.85747161  0.40096988  0.50740246     0.99100
C600        C  0.85642544  0.08430535  0.50271475     0.99200
N601        N  0.72885379  0.03460430  0.41553626    -0.06200
N602        N  0.71595430  0.06261624  0.39422338    -0.61500
N603        N  0.76924981  0.44924454  0.41751634    -0.05500
N604        N  0.78331214  0.42298714  0.39462350    -0.58300
N605        N  0.73169576  0.44931045  0.41576494    -0.06800
N606        N  0.71940613  0.42319381  0.39156188    -0.61100
N607        N  0.76645506  0.03462269  0.41627691    -0.05800
N608        N  0.77993436  0.06244925  0.39535130    -0.58300
Mn609      Mn  0.69763101  0.49140004  0.44656591     1.20200
Mn610      Mn  0.80063439  0.49171271  0.45095740     1.10100
Cl611      Cl  0.74731397  0.49215619  0.50174340    -0.86300
C612        C  0.74818642  0.07969258  0.38183977     0.96100
C613        C  0.75187451  0.40696654  0.37865626     0.95900
N614        N  0.49776594  0.29893146  0.49643900    -0.36900
N615        N  0.93724017  0.24253041  0.50397672    -0.57500
N616        N  0.49614757  0.18518956  0.49312837    -0.36900
N617        N  0.55635654  0.24169725  0.49880154    -0.57500
C618        C  0.96581339  0.32047375  0.50073060     0.26700
C619        C  0.52900469  0.31961097  0.50508516     0.26700
C620        C  0.96519974  0.16443576  0.49718829     0.26700
C621        C  0.52697007  0.16385668  0.50153823     0.26700
C622        C  0.91480446  0.27264504  0.50948857     0.35300
C623        C  0.91450148  0.21237514  0.50761885     0.35300
C624        C  0.57913804  0.27167781  0.49378653     0.35300
C625        C  0.57836658  0.21134520  0.49293559     0.35300
C626        C  0.97735332  0.35542384  0.48846936    -0.22200
C627        C  0.51761356  0.35419922  0.51865912    -0.22200
C628        C  0.97663671  0.12953765  0.48457411    -0.22200
C629        C  0.51481581  0.12895415  0.51335319    -0.22200
C630        C  0.87739796  0.26159110  0.51598073    -0.23200
C631        C  0.87720046  0.22341679  0.51476103    -0.23200
C632        C  0.61602029  0.26031204  0.48525428    -0.23200
C633        C  0.61554881  0.22209075  0.48477758    -0.23200
C634        C  0.92723719  0.30990333  0.50645307    -0.18600
C635        C  0.56742875  0.30897139  0.49895873    -0.18600
C636        C  0.56575509  0.17419447  0.49697731    -0.18600
C637        C  0.92661598  0.17517700  0.50269742    -0.18600
H638        H  0.95936795  0.37873566  0.48064057     0.14300
H639        H  0.53567642  0.37712712  0.52757555     0.14300
H640        H  0.95858052  0.10644801  0.47613345     0.14300
H641        H  0.53237239  0.10551793  0.52175266     0.14300
H642        H  0.85275775  0.27918698  0.52064062     0.12600
H643        H  0.85238533  0.20583119  0.51835540     0.12600
H644        H  0.64072384  0.27772145  0.48023346     0.12600
H645        H  0.63982703  0.20425383  0.47926041     0.12600
H646        H  0.49762089  0.27299266  0.48330866     0.25900
H647        H  0.49671466  0.21167093  0.48133025     0.25900
C648        C  0.75176064  0.20947016  0.28002899     0.86200
C649        C  0.71658689  0.21310877  0.25318912    -0.54000
C650        C  0.71581176  0.24461106  0.23073412     0.09100
C651        C  0.75062554  0.27009030  0.23745255     0.20100
C652        C  0.78547040  0.21299507  0.25123729    -0.54800
C653        C  0.78497140  0.24463971  0.22903834     0.09200
C654        C  0.75256065  0.24510743  0.30434169    -0.54300
C655        C  0.75206463  0.27664931  0.28230866     0.09800
H656        H  0.69450350  0.19200134  0.25141673     0.14300
H657        H  0.75026000  0.29584038  0.21948461     0.00100
H658        H  0.80707015  0.19184565  0.24696085     0.14600
H659        H  0.75350045  0.24542192  0.33640397     0.14400
N660        N  0.74996553  0.45128280  0.00449154    -0.36900
N661        N  0.80928284  0.00736128  0.99935338    -0.57500
N662        N  0.74982826  0.06431457  0.00181477    -0.36900
N663        N  0.69182892  0.00648303  0.00292186    -0.57500
C664        C  0.78068204  0.42958776  0.99749795     0.26700
C665        C  0.71837246  0.43057452  0.99779618     0.26700
C666        C  0.78044483  0.08508461  0.99176752     0.26700
C667        C  0.71813468  0.08447812  0.99380917     0.26700
C668        C  0.83180959  0.47714196  0.00739810     0.35300
C669        C  0.83159085  0.03783123  0.00264173     0.35300
C670        C  0.66959131  0.47998604  0.00797582     0.35300
C671        C  0.66921657  0.03637192  0.00872565     0.35300
C672        C  0.76848833  0.39434639  0.98674242    -0.22200
C673        C  0.72914461  0.39496721  0.98694268    -0.22200
C674        C  0.76808682  0.11914032  0.97755570    -0.22200
C675        C  0.72872245  0.11873895  0.97879040    -0.22200
C676        C  0.86911463  0.48753233  0.01603525    -0.23200
C677        C  0.86923051  0.02747174  0.00943165    -0.23200
C678        C  0.63334937  0.49207555  0.01821793    -0.23200
C679        C  0.63287752  0.02516755  0.01970747    -0.23200
C680        C  0.81927957  0.44020810  0.00243519    -0.18600
C681        C  0.68026388  0.44247243  0.00318335    -0.18600
C682        C  0.68017062  0.07345200  0.00168985    -0.18600
C683        C  0.81913642  0.07472841  0.99683849    -0.18600
H684        H  0.78609347  0.37054406  0.97982046     0.14300
H685        H  0.71061459  0.37174490  0.98020217     0.14300
H686        H  0.78561439  0.14193128  0.96741989     0.14300
H687        H  0.71004260  0.14116270  0.96981835     0.14300
H688        H  0.89336608  0.46961203  0.02157225     0.12600
H689        H  0.89388470  0.04537043  0.01262327     0.12600
H690        H  0.60871338  0.47524112  0.02532970     0.12600
H691        H  0.60836298  0.04252588  0.02581185     0.12600
H692        H  0.75057639  0.47819413  0.01529908     0.25900
H693        H  0.75062781  0.03864039  0.01561961     0.25900
N694        N  0.54502661  0.27623533  0.91558670    -0.06400
N695        N  0.57345027  0.28846251  0.89336957    -0.58500
N696        N  0.95658055  0.24080548  0.91534576    -0.06100
N697        N  0.92696294  0.22769264  0.89569429    -0.60700
N698        N  0.95652715  0.27727261  0.91491711    -0.05700
N699        N  0.92691485  0.28979410  0.89459672    -0.58500
N700        N  0.54502002  0.23975821  0.91659750    -0.05400
N701        N  0.57328320  0.22644970  0.89526784    -0.61000
C702        C  0.59093090  0.25696598  0.88096336     0.95800
C703        C  0.90873010  0.25848042  0.88291659     0.95500
N704        N  0.95520288  0.17839359  0.01771268    -0.06600
N705        N  0.92563362  0.15901249  0.03034349    -0.59100
N706        N  0.54512715  0.17895210  0.98289269    -0.04700
N707        N  0.57420449  0.15938320  0.96953110    -0.60400
N708        N  0.54479038  0.17895833  0.02171164    -0.06600
N709        N  0.57374563  0.15932452  0.03565651    -0.59400
N710        N  0.95604950  0.17862529  0.97891622    -0.04400
N711        N  0.92709982  0.15945794  0.96425245    -0.60400
Mn712      Mn  0.00053104  0.20907763  0.94664726     1.18400
C713        C  0.90843658  0.14758272  0.99666017     0.97900
C714        C  0.59176210  0.14752217  0.00272505     0.98500
N715        N  0.95594577  0.33793274  0.98096130    -0.06600
N716        N  0.92620098  0.35651860  0.96728676    -0.62900
N717        N  0.54393323  0.33803953  0.02076559    -0.05400
N718        N  0.57302443  0.35743565  0.03474480    -0.63600
N719        N  0.54430341  0.33781269  0.98188834    -0.06100
N720        N  0.57370601  0.35705595  0.96864226    -0.63200
N721        N  0.95575701  0.33761252  0.01979352    -0.05000
N722        N  0.92595702  0.35592483  0.03341794    -0.63900
Mn723      Mn  0.00048781  0.30884026  0.94719623     1.10700
C724        C  0.90789886  0.36733576  0.00035516     0.99100
C725        C  0.59126489  0.36893662  0.00193073     0.99200
N726        N  0.54330035  0.24101467  0.08697305    -0.06200
N727        N  0.57183185  0.22802763  0.10827231    -0.61500
N728        N  0.95483224  0.27645203  0.08479878    -0.05500
N729        N  0.92580584  0.28917567  0.10569981    -0.58300
N730        N  0.95432272  0.23997943  0.08363391    -0.06800
N731        N  0.92479563  0.22713444  0.10345099    -0.61100
N732        N  0.54339286  0.27749389  0.08741470    -0.05800
N733        N  0.57206198  0.29010844  0.10922865    -0.58300
Mn734      Mn  0.99892917  0.20815812  0.05250885     1.20200
Mn735      Mn  0.99943500  0.30799723  0.05388102     1.10100
Cl736      Cl  0.99990901  0.25849290  0.00006965    -0.86300
C737        C  0.58961662  0.25879837  0.12192461     0.96100
C738        C  0.90723090  0.25805155  0.11703049     0.95900
C739        C  0.87492738  0.12455733  0.99546040    -0.13600
C740        C  0.84825494  0.10333483  0.99528246    -0.15100
C741        C  0.65017393  0.41477952  0.00286241    -0.13600
C742        C  0.62395355  0.39304068  0.00240063    -0.15100
C743        C  0.87455045  0.39023313  0.00051422    -0.13600
C744        C  0.84824675  0.41168255  0.00127038    -0.15100
C745        C  0.65051270  0.10155338  0.00199993    -0.13600
C746        C  0.62435732  0.12333650  0.00272235    -0.15100
C747        C  0.83333234  0.28424147  0.19404124    -0.13600
C748        C  0.81307154  0.25077221  0.19722828     0.08500
C749        C  0.82159274  0.22149907  0.17143144    -0.13600
C750        C  0.85129141  0.22465255  0.14445028    -0.13600
C751        C  0.87311006  0.25720777  0.14254563     0.08500
C752        C  0.86328221  0.28745900  0.16678498    -0.13600
H753        H  0.82715317  0.30713191  0.21374644     0.12500
H754        H  0.80577362  0.19570429  0.17284859     0.12500
H755        H  0.85777615  0.20118026  0.12566144     0.12500
H756        H  0.87968124  0.31291893  0.16579522     0.12500
C757        C  0.67264677  0.21963674  0.17875450    -0.13600
C758        C  0.68598805  0.25038719  0.20016018     0.08500
C759        C  0.66942247  0.28533295  0.19331018    -0.13600
C760        C  0.63840468  0.28879379  0.16702956    -0.13600
C761        C  0.62391298  0.25731625  0.14740355     0.08500
C762        C  0.64193470  0.22300451  0.15296699    -0.13600
H763        H  0.68567853  0.19259847  0.18235974     0.12500
H764        H  0.67942768  0.30950037  0.20931628     0.12500
H765        H  0.62514792  0.31567013  0.16294176     0.12500
H766        H  0.63198087  0.19839422  0.13771247     0.12500
C767        C  0.71897208  0.36399300  0.33172523    -0.13600
C768        C  0.75275844  0.37584390  0.35047201     0.08500
C769        C  0.78706762  0.35690948  0.34308253    -0.13600
C770        C  0.78718345  0.32554545  0.31887986    -0.13600
C771        C  0.75319263  0.31319376  0.30125907     0.08500
C772        C  0.71923124  0.33286176  0.30715573    -0.13600
H773        H  0.69218636  0.37822401  0.33681397     0.12500
H774        H  0.81349252  0.36550595  0.35712046     0.12500
H775        H  0.81347703  0.31012877  0.31495623     0.12500
H776        H  0.69269008  0.32312203  0.29422026     0.12500
C777        C  0.71572226  0.13322170  0.34905047    -0.13600
C778        C  0.74897030  0.11258238  0.35617309     0.08500
C779        C  0.78342588  0.12385902  0.33900078    -0.13600
C780        C  0.78458475  0.15479336  0.31439871    -0.13600
C781        C  0.75112987  0.17508350  0.30604003     0.08500
C782        C  0.71695076  0.16452696  0.32484870    -0.13600
H783        H  0.68890916  0.12549281  0.36261244     0.12500
H784        H  0.80965247  0.10877241  0.34463238     0.12500
H785        H  0.81206975  0.16300973  0.30302762     0.12500
H786        H  0.69102171  0.18047862  0.32076166     0.12500
C787        C  0.87878541  0.36675857  0.50836040    -0.13600
C788        C  0.89902754  0.33956110  0.50786629    -0.15100
C789        C  0.61371848  0.11686700  0.49747524    -0.13600
C790        C  0.59381511  0.14433753  0.49712910    -0.15100
C791        C  0.61601351  0.36585074  0.49829790    -0.13600
C792        C  0.59588032  0.33851410  0.49849323    -0.15100
C793        C  0.89813911  0.14568615  0.50292176    -0.13600
C794        C  0.87773348  0.11857451  0.50307332    -0.15100
C795        C  0.83463785  0.28467634  0.80627027    -0.13600
C796        C  0.81464562  0.25115137  0.80250163     0.08500
C797        C  0.82352661  0.22146900  0.82765697    -0.13600
C798        C  0.85321113  0.22454552  0.85492638    -0.13600
C799        C  0.87457242  0.25737950  0.85750298     0.08500
C800        C  0.86454543  0.28778747  0.83369211    -0.13600
H801        H  0.82818154  0.30777925  0.78695794     0.12500
H802        H  0.80794437  0.19555981  0.82557064     0.12500
H803        H  0.86004285  0.20089453  0.87335532     0.12500
H804        H  0.88076248  0.31334349  0.83516395     0.12500
C805        C  0.67071554  0.21688805  0.81967051    -0.13600
C806        C  0.68636833  0.24825590  0.80127133     0.08500
C807        C  0.67163494  0.28345633  0.81083445    -0.13600
C808        C  0.64082633  0.28684034  0.83718879    -0.13600
C809        C  0.62449640  0.25505552  0.85439294     0.08500
C810        C  0.64017502  0.22021764  0.84559030    -0.13600
H811        H  0.68203033  0.18945666  0.81402095     0.12500
H812        H  0.68307832  0.30815531  0.79709065     0.12500
H813        H  0.62941474  0.31410772  0.84355453     0.12500
H814        H  0.62867222  0.19520148  0.85861584     0.12500
C815        C  0.71267463  0.32549381  0.68321328    -0.13600
C816        C  0.74636938  0.31590206  0.70322907     0.08500
C817        C  0.77845507  0.33894293  0.70076452    -0.13600
C818        C  0.77743621  0.37037675  0.67666880    -0.13600
C819        C  0.74417861  0.37918051  0.65517485     0.08500
C820        C  0.71143872  0.35714583  0.65960384    -0.13600
H821        H  0.68788389  0.30753403  0.68454096     0.12500
H822        H  0.80482418  0.33146942  0.71562312     0.12500
H823        H  0.80296250  0.38715634  0.67393376     0.12500
H824        H  0.68548718  0.36336335  0.64337986     0.12500
C825        C  0.78504958  0.15740135  0.68327630    -0.13600
C826        C  0.75198574  0.17828339  0.69140045     0.08500
C827        C  0.71776054  0.16869036  0.67176813    -0.13600
C828        C  0.71586989  0.13736583  0.64748852    -0.13600
C829        C  0.74853836  0.11572306  0.64121507     0.08500
C830        C  0.78325220  0.12650224  0.65860687    -0.13600
H831        H  0.81267597  0.16482390  0.69511176     0.12500
H832        H  0.69217294  0.18512473  0.67583116     0.12500
H833        H  0.68892859  0.13012386  0.63364006     0.12500
H834        H  0.80914585  0.11078870  0.65347525     0.12500
C835        C  0.74644118  0.71140473  0.71982683     0.86200
C836        C  0.78208287  0.71393448  0.74625057    -0.54000
C837        C  0.78319735  0.74443259  0.77020770     0.09100
C838        C  0.74827000  0.77015852  0.76524372     0.20100
C839        C  0.71329862  0.71352088  0.74924050    -0.54800
C840        C  0.71406879  0.74424027  0.77294579     0.09200
C841        C  0.74512431  0.74785648  0.69732002    -0.54300
C842        C  0.74606239  0.77847890  0.72071495     0.09800
H843        H  0.80406706  0.69274173  0.74711283     0.14300
H844        H  0.74889437  0.79517765  0.78438840     0.00100
H845        H  0.69144030  0.69230481  0.75179593     0.14600
H846        H  0.74353340  0.74940799  0.66531951     0.14400
N847        N  0.76329510  0.53652552  0.58548222    -0.06400
N848        N  0.77612325  0.56545494  0.60522220    -0.58500
N849        N  0.72733224  0.95016545  0.58536183    -0.06100
N850        N  0.71388114  0.92320986  0.60764149    -0.60700
N851        N  0.76492319  0.95004984  0.58592686    -0.05700
N852        N  0.77784447  0.92319467  0.60880272    -0.58500
N853        N  0.72570059  0.53663600  0.58422228    -0.05400
N854        N  0.71215610  0.56578987  0.60319476    -0.61000
C855        C  0.74400741  0.58348136  0.61603073     0.95800
C856        C  0.74568703  0.90666408  0.62209409     0.95500
N857        N  0.66567209  0.94809671  0.48011356    -0.06600
N858        N  0.64860532  0.91783384  0.46669744    -0.59100
N859        N  0.66399110  0.53500737  0.51700008    -0.04700
N860        N  0.64530159  0.56466464  0.52936040    -0.60400
N861        N  0.66529503  0.53441140  0.47823535    -0.06600
N862        N  0.64752713  0.56362026  0.46334931    -0.59400
N863        N  0.66509864  0.94871398  0.51895746    -0.04400
N864        N  0.64770860  0.91890933  0.53276504    -0.60400
Mn865      Mn  0.69480845  0.99255765  0.55272081     1.18400
C866        C  0.63764365  0.90000329  0.49988301     0.97900
C867        C  0.63526376  0.58212673  0.49559313     0.98500
N868        N  0.82908378  0.94906043  0.52145203    -0.06600
N869        N  0.84704730  0.91951066  0.53536082    -0.62900
N870        N  0.83012699  0.53525086  0.48500037    -0.05400
N871        N  0.84826832  0.56469322  0.47138220    -0.63600
N872        N  0.82892507  0.53601949  0.52374295    -0.06100
N873        N  0.84627427  0.56606421  0.53738418    -0.63200
N874        N  0.82964110  0.94912808  0.48263187    -0.04800
N875        N  0.84797821  0.91960479  0.46930384    -0.63900
Mn876      Mn  0.79789825  0.99235560  0.55441110     1.10700
C877        C  0.85862220  0.90146345  0.50250145     0.99100
C878        C  0.85812395  0.58357093  0.50433012     0.99200
N879        N  0.73141715  0.53442816  0.41664260    -0.06200
N880        N  0.71912154  0.56349188  0.39662484    -0.61500
N881        N  0.76742463  0.94981317  0.41562717    -0.05500
N882        N  0.78151448  0.92381336  0.39246420    -0.58300
N883        N  0.72982115  0.94932844  0.41465286    -0.06800
N884        N  0.71759254  0.92289484  0.39067748    -0.61100
N885        N  0.76899425  0.53428642  0.41826834    -0.05800
N886        N  0.78305498  0.56315152  0.39942560    -0.58300
Mn887      Mn  0.69602116  0.99159313  0.44649314     1.20200
Mn888      Mn  0.79916326  0.99235382  0.44851598     1.10100
Cl889      Cl  0.74692513  0.99211312  0.50050254    -0.86300
C890        C  0.75167505  0.58112238  0.38611074     0.96100
C891        C  0.75017451  0.90718866  0.37709315     0.95900
N892        N  0.49856033  0.79899622  0.50053747    -0.36900
N893        N  0.93847048  0.74225257  0.50126919    -0.57500
N894        N  0.49752722  0.68543849  0.49484394    -0.36900
N895        N  0.55763308  0.74162440  0.49573500    -0.57500
C896        C  0.96736048  0.82087560  0.50013749     0.26700
C897        C  0.53010296  0.81976812  0.49360195     0.26700
C898        C  0.96647959  0.66321821  0.49746561     0.26700
C899        C  0.52849005  0.66434962  0.48647549     0.26700
C900        C  0.91568784  0.77255730  0.50346010     0.35300
C901        C  0.91544074  0.71211720  0.50276587     0.35300
C902        C  0.58011025  0.77124528  0.50366823     0.35300
C903        C  0.57953942  0.71103653  0.50053587     0.35300
C904        C  0.97939170  0.85689695  0.49283768    -0.22200
C905        C  0.51910755  0.85494279  0.48143288    -0.22200
C906        C  0.97782134  0.62733093  0.48829410    -0.22200
C907        C  0.51654659  0.62989122  0.47288273    -0.22200
C908        C  0.87776534  0.76157380  0.50550827    -0.23200
C909        C  0.87760922  0.72337224  0.50508649    -0.23200
C910        C  0.61674203  0.75947096  0.51314474    -0.23200
C911        C  0.61638243  0.72128346  0.51115656    -0.23200
C912        C  0.92842574  0.80995791  0.50252261    -0.18600
C913        C  0.56849237  0.80865512  0.49975285    -0.18600
C914        C  0.56710220  0.67426454  0.49337494    -0.18600
C915        C  0.92781587  0.67464162  0.50098924    -0.18600
H916        H  0.96179744  0.88113226  0.48776811     0.14300
H917        H  0.53742002  0.87803265  0.47385199     0.14300
H918        H  0.95973946  0.60371726  0.48182275     0.14300
H919        H  0.53425305  0.60668934  0.46417449     0.14300
H920        H  0.85278473  0.77922501  0.50692910     0.12600
H921        H  0.85247355  0.70589705  0.50605132     0.12600
H922        H  0.64120546  0.77660368  0.52036324     0.12600
H923        H  0.64051191  0.70317349  0.51658295     0.12600
H924        H  0.49812553  0.77249594  0.51223789     0.25900
H925        H  0.49777964  0.71136559  0.50789099     0.25900
C926        C  0.75618788  0.70978660  0.28307723     0.86200
C927        C  0.72188118  0.71150149  0.25469599    -0.54000
C928        C  0.72147194  0.74161032  0.23007443     0.09100
C929        C  0.75610836  0.76760805  0.23637667     0.20100
C930        C  0.79083198  0.71173928  0.25543169    -0.54800
C931        C  0.79092350  0.74181549  0.23085996     0.09200
C932        C  0.75582594  0.74673879  0.30488056    -0.54300
C933        C  0.75578347  0.77691003  0.28082436     0.09800
H934        H  0.69984399  0.69037386  0.25405419     0.14300
H935        H  0.75631104  0.79227231  0.21681324     0.00100
H936        H  0.81278814  0.69054696  0.25409833     0.14600
H937        H  0.75534228  0.74893707  0.33686946     0.14400
N938        N  0.75156480  0.94950899  0.00616003    -0.36900
N939        N  0.81001514  0.50751408  0.00131693    -0.57500
N940        N  0.75269180  0.56581958  0.00237306    -0.36900
N941        N  0.69247107  0.50935445  0.00053041    -0.57500
C942        C  0.78265501  0.92851227  0.99837531     0.26700
C943        C  0.72039648  0.92808407  0.00014173     0.26700
C944        C  0.78420477  0.58552342  0.99283439     0.26700
C945        C  0.72194689  0.58652942  0.99245046     0.26700
C946        C  0.83249386  0.97775349  0.00453425     0.35300
C947        C  0.83314086  0.53713283  0.00647283     0.35300
C948        C  0.67017561  0.97635938  0.01060304     0.35300
C949        C  0.67110455  0.54004362  0.00645852     0.35300
C950        C  0.77112803  0.89292690  0.98816357    -0.22200
C951        C  0.73181056  0.89266200  0.98923602    -0.22200
C952        C  0.77338288  0.61945321  0.97707231    -0.22200
C953        C  0.73401219  0.62008024  0.97679752    -0.22200
C954        C  0.86980747  0.98947378  0.01054024    -0.23200
C955        C  0.86993527  0.52554648  0.01553642    -0.23200
C956        C  0.63347598  0.98714968  0.02088192    -0.23200
C957        C  0.63431295  0.53013303  0.01730681    -0.23200
C958        C  0.82108280  0.94026867  0.00140840    -0.18600
C959        C  0.68209215  0.93925900  0.00559516    -0.18600
C960        C  0.68350585  0.57667533  0.99927468    -0.18600
C961        C  0.82230124  0.57422717  0.99959947    -0.18600
H962        H  0.78914774  0.86959218  0.98061047     0.14300
H963        H  0.71371695  0.86905117  0.98275003     0.14300
H964        H  0.79191650  0.64145498  0.96686541     0.14300
H965        H  0.71629333  0.64268408  0.96637627     0.14300
H966        H  0.89494907  0.97243617  0.01483089     0.12600
H967        H  0.89493896  0.54263963  0.02049201     0.12600
H968        H  0.60951615  0.96946893  0.02814490     0.12600
H969        H  0.61051691  0.54838724  0.02348905     0.12600
H970        H  0.75159042  0.97653671  0.01663457     0.25900
H971        H  0.75212958  0.54052938  0.01701942     0.25900
N972        N  0.54397631  0.77699828  0.91639235    -0.06400
N973        N  0.57280303  0.78952395  0.89508720    -0.58500
N974        N  0.95804937  0.73917274  0.91183444    -0.06100
N975        N  0.92963536  0.72577136  0.89056770    -0.60700
N976        N  0.95749497  0.77564744  0.91149391    -0.05700
N977        N  0.92858821  0.78785180  0.88983168    -0.58500
N978        N  0.54396799  0.74054669  0.91691487    -0.05400
N979        N  0.57275693  0.72744119  0.89633842    -0.61000
C980        C  0.59053956  0.75815295  0.88292800     0.95800
C981        C  0.91140921  0.75633845  0.87708039     0.95500
N982        N  0.95987004  0.67649582  0.01561154    -0.06600
N983        N  0.93121361  0.65656885  0.02930678    -0.59100
N984        N  0.54676627  0.67965620  0.98157577    -0.04700
N985        N  0.57641018  0.66167184  0.96706809    -0.60400
N986        N  0.54774180  0.67949855  0.02038139    -0.06600
N987        N  0.57813067  0.66133851  0.03318810    -0.59400
N988        N  0.95931521  0.67697988  0.97680458    -0.04400
N989        N  0.93024344  0.65734735  0.96317410    -0.60400
Mn990      Mn  0.00251573  0.70793926  0.94330736     1.18400
C991        C  0.91309240  0.64498895  0.99628079     0.97900
C992        C  0.59563959  0.65062876  0.99959236     0.98500
N993        N  0.95710861  0.83626120  0.97851597    -0.06600
N994        N  0.92786833  0.85585837  0.96523812    -0.62900
N995        N  0.54515302  0.83742297  0.02169039    -0.05400
N996        N  0.57485234  0.85597886  0.03537533    -0.63600
N997        N  0.54470258  0.83773658  0.98283580    -0.06100
N998        N  0.57418151  0.85658504  0.96922518    -0.63200
N999        N  0.95735444  0.83577090  0.01739347    -0.05000
N1000       N  0.92827465  0.85502050  0.03134606    -0.63900
Mn1001     Mn  0.00132256  0.80750490  0.94390937     1.10700
C1002       C  0.91021326  0.86715304  0.99850843     0.99100
C1003       C  0.59255854  0.86755457  0.00237199     0.99200
N1004       N  0.54713131  0.73987541  0.08656505    -0.06200
N1005       N  0.57602483  0.72642419  0.10700378    -0.61500
N1006       N  0.95854879  0.77370342  0.08283960    -0.05500
N1007       N  0.92984545  0.78552771  0.10478792    -0.58300
N1008       N  0.95915791  0.73723092  0.08181620    -0.06800
N1009       N  0.93089154  0.72348443  0.10285298    -0.61100
N1010       N  0.54730153  0.77632755  0.08755914    -0.05800
N1011       N  0.57663116  0.78842625  0.10892180    -0.58300
Mn1012     Mn  0.00356006  0.70672193  0.04938625     1.20200
Mn1013     Mn  0.00209596  0.80629658  0.05109840     1.10100
Cl1014     Cl  0.00230496  0.75715075  0.99693561    -0.86300
C1015       C  0.59434285  0.75679479  0.12080139     0.96100
C1016       C  0.91275755  0.75384332  0.11698250     0.95900
C1017       C  0.87956406  0.62218199  0.99647639    -0.13600
C1018       C  0.85243511  0.60164620  0.99749451    -0.15100
C1019       C  0.65263487  0.91125202  0.00414261    -0.13600
C1020       C  0.62602076  0.89021675  0.00277334    -0.15100
C1021       C  0.87732324  0.89092520  0.99900333    -0.13600
C1022       C  0.85091788  0.91239504  0.99991492    -0.15100
C1023       C  0.65483489  0.60556028  0.99828143    -0.13600
C1024       C  0.62884596  0.62744080  0.99856567    -0.15100
C1025       C  0.83636689  0.78088346  0.19113888    -0.13600
C1026       C  0.82011547  0.74618691  0.19955665     0.08500
C1027       C  0.83280460  0.71483239  0.17872131    -0.13600
C1028       C  0.86220271  0.71770986  0.15129153    -0.13600
C1029       C  0.87962619  0.75203805  0.14389764     0.08500
C1030       C  0.86601759  0.78379051  0.16352680    -0.13600
H1031       H  0.82705591  0.80543672  0.20682961     0.12500
H1032       H  0.82011791  0.68786940  0.18384876     0.12500
H1033       H  0.87164803  0.69284725  0.13624319     0.12500
H1034       H  0.87891290  0.81063294  0.15828493     0.12500
C1035       C  0.67289510  0.71538562  0.18324367    -0.13600
C1036       C  0.69102311  0.74668883  0.19954776     0.08500
C1037       C  0.67865400  0.78212077  0.18756555    -0.13600
C1038       C  0.64757883  0.78595441  0.16132953    -0.13600
C1039       C  0.62855577  0.75438535  0.14669089     0.08500
C1040       C  0.64204716  0.71918184  0.15755179    -0.13600
H1041       H  0.68236838  0.68760644  0.19035623     0.12500
H1042       H  0.69204201  0.80681528  0.19943843     0.12500
H1043       H  0.63801822  0.81346395  0.15313296     0.12500
H1044       H  0.62848789  0.69422614  0.14647398     0.12500
C1045       C  0.71775108  0.86045535  0.33364992    -0.13600
C1046       C  0.75160355  0.87631104  0.34840876     0.08500
C1047       C  0.78696675  0.86176515  0.33629924    -0.13600
C1048       C  0.78838138  0.83089352  0.31134757    -0.13600
C1049       C  0.75452148  0.81436078  0.29790247     0.08500
C1050       C  0.71923087  0.82960433  0.30864728    -0.13600
H1051       H  0.69013845  0.87111251  0.34245277     0.12500
H1052       H  0.81352498  0.87344503  0.34715881     0.12500
H1053       H  0.81580683  0.81876961  0.30410748     0.12500
H1054       H  0.69285710  0.81644920  0.29930259     0.12500
C1055       C  0.71920341  0.63341118  0.35144618    -0.13600
C1056       C  0.75300317  0.61517669  0.36225711     0.08500
C1057       C  0.78817873  0.62949844  0.34971484    -0.13600
C1058       C  0.78941948  0.66028598  0.32483611    -0.13600
C1059       C  0.75541987  0.67704648  0.31138743     0.08500
C1060       C  0.72045774  0.66443468  0.32692901    -0.13600
H1061       H  0.69175207  0.62361554  0.36177350     0.12500
H1062       H  0.81479166  0.61663011  0.35871208     0.12500
H1063       H  0.81711782  0.67080847  0.31636984     0.12500
H1064       H  0.69385585  0.67824052  0.31982759     0.12500
C1065       C  0.87999159  0.86712128  0.50279155    -0.13600
C1066       C  0.90008510  0.83971844  0.50275686    -0.15100
C1067       C  0.61446239  0.61660654  0.49422444    -0.13600
C1068       C  0.59492442  0.64427263  0.49360265    -0.15100
C1069       C  0.61712207  0.86531062  0.50026084    -0.13600
C1070       C  0.59719917  0.83787980  0.50049207    -0.15100
C1071       C  0.89931359  0.64522359  0.50253156    -0.13600
C1072       C  0.87920487  0.61795136  0.50397380    -0.15100
C1073       C  0.83003685  0.78387550  0.80835395    -0.13600
C1074       C  0.81374056  0.74907013  0.80028679     0.08500
C1075       C  0.82823661  0.71758396  0.81963129    -0.13600
C1076       C  0.85963678  0.72033900  0.84471830    -0.13600
C1077       C  0.87706009  0.75474763  0.85168199     0.08500
C1078       C  0.86162661  0.78670233  0.83389798    -0.13600
H1079       H  0.81929496  0.80854734  0.79386428     0.12500
H1080       H  0.81553045  0.69052296  0.81502034     0.12500
H1081       H  0.87044488  0.69530948  0.85845798     0.12500
H1082       H  0.87446408  0.81362203  0.83901930     0.12500
C1083       C  0.67395713  0.71939359  0.82707538    -0.13600
C1084       C  0.68548133  0.74982755  0.80430462     0.08500
C1085       C  0.66774161  0.78434955  0.80990288    -0.13600
C1086       C  0.63734525  0.78775394  0.83650365    -0.13600
C1087       C  0.62465535  0.75664637  0.85771667     0.08500
C1088       C  0.64385512  0.72274543  0.85342791    -0.13600
H1089       H  0.68779982  0.69268519  0.82388681     0.12500
H1090       H  0.67624386  0.80813015  0.79251809     0.12500
H1091       H  0.62298742  0.81421700  0.83945145     0.12500
H1092       H  0.63511434  0.69846829  0.86989838     0.12500
C1093       C  0.71070905  0.82695005  0.68434068    -0.13600
C1094       C  0.74458949  0.81540839  0.70278500     0.08500
C1095       C  0.77861185  0.83473080  0.69596953    -0.13600
C1096       C  0.77899894  0.86468070  0.66981203    -0.13600
C1097       C  0.74524639  0.87575824  0.65049101     0.08500
C1098       C  0.71096097  0.85706936  0.65853692    -0.13600
H1099       H  0.68446548  0.81151555  0.68853434     0.12500
H1100       H  0.80516305  0.82534288  0.70915583     0.12500
H1101       H  0.80579168  0.87868646  0.66413226     0.12500
H1102       H  0.68459767  0.86495925  0.64393247     0.12500
C1103       C  0.77969239  0.66395588  0.67654676    -0.13600
C1104       C  0.74554067  0.67841706  0.69205035     0.08500
C1105       C  0.71055644  0.66401910  0.67812890    -0.13600
C1106       C  0.70988033  0.63345412  0.65282357    -0.13600
C1107       C  0.74415681  0.61733407  0.64019915     0.08500
C1108       C  0.77901555  0.63340046  0.65145887    -0.13600
H1109       H  0.80712790  0.67612717  0.68361718     0.12500
H1110       H  0.68362337  0.67620284  0.68681812     0.12500
H1111       H  0.68258442  0.62222503  0.64350898     0.12500
H1112       H  0.80589075  0.62224613  0.64104977     0.12500
loop_ 
_geom_bond_atom_site_label_1 
_geom_bond_atom_site_label_2 
_geom_bond_distance 
_geom_bond_site_symmetry_2 
_ccdc_geom_bond_type 
C1            C2   1.539       .  S
C1            C7   1.528       .  S
C1            C5   1.539       .  S
C1          C270   1.526       .  S
C2            H9   1.086       .  S
C2            C3   1.370       .  D
C3            C4   1.541       .  S
C3          C240   1.478       .  S
C4            C8   1.537       .  S
C4            C6   1.539       .  S
C4           H10   1.111       .  S
C5           H11   1.082       .  S
C5            C6   1.365       .  D
C6          C250   1.485       .  S
C7           H12   1.087       .  S
C7            C8   1.362       .  D
C8          C260   1.468       .  S
N13          N14   1.320       .  A
N13          N19   1.316       .  A
N13        Mn320   2.195   1_545  S
N14          C21   1.352       .  A
N15          N17   1.316       .  A
N15          N16   1.320       .  A
N15         Mn31   2.207       .  S
N16          C22   1.354       .  A
N17          N18   1.320       .  A
N17         Mn42   2.198       .  S
N18          C22   1.353       .  A
N19          N20   1.319       .  A
N19        Mn309   2.201   1_545  S
N20          C21   1.353       .  A
C21         C273   1.474       .  S
C22         C263   1.477       .  S
N23          N29   1.317       .  A
N23          N24   1.324       .  A
N23         Mn53   2.221       .  S
N24          C32   1.354       .  A
N25          N26   1.323       .  A
N25          N27   1.316       .  A
N25        Mn309   2.211   1_545  S
N26          C33   1.352       .  A
N27          N28   1.324       .  A
N27        Mn331   2.221   1_545  S
N28          C33   1.354       .  A
N29          N30   1.323       .  A
N29         Mn31   2.216       .  S
N30          C32   1.353       .  A
Mn31        N297   2.198       .  S
Mn31        N303   2.208       .  S
Mn31        Cl55   2.546       .  S
C32         C235   1.449       .  S
C33         C233   1.450       .  S
N34          N35   1.321       .  A
N34          N40   1.316       .  A
N34         Mn42   2.201       .  S
N35          C43   1.351       .  A
N36          N38   1.314       .  A
N36          N37   1.321       .  A
N36        Mn332   2.198   1_545  S
N37          C44   1.350       .  A
N38          N39   1.323       .  A
N38        Mn320   2.206   1_545  S
N39          C44   1.353       .  A
N40          N41   1.319       .  A
N40         Mn54   2.193       .  S
N41          C43   1.349       .  A
Mn42        N291   2.181       .  S
Mn42        N316   2.207       .  S
Mn42        Cl55   2.547       .  S
C43         C231   1.432       .  S
C44         C238   1.440       .  S
N45          N46   1.320       .  A
N45          N51   1.315       .  A
N45        Mn331   2.195   1_545  S
N46          C56   1.353       .  A
N47          N48   1.321       .  A
N47          N49   1.316       .  A
N47         Mn54   2.200       .  S
N48          C57   1.353       .  A
N49          N50   1.319       .  A
N49         Mn53   2.207       .  S
N50          C57   1.353       .  A
N51          N52   1.316       .  A
N51        Mn332   2.191   1_545  S
N52          C56   1.350       .  A
Mn53        N305   2.210       .  S
Mn53        N323   2.212       .  S
Mn53        Cl55   2.546       .  S
Mn54        N314   2.205       .  S
Mn54        N329   2.175       .  S
Mn54        Cl55   2.548       .  S
C56         C222   1.469       .  S
C57         C212   1.476       .  S
N58          C63   1.356   1_655  A
N58         C618   1.355       .  A
N58          H90   1.034       .  S
N59          C66   1.350       .  A
N59          C67   1.351       .  A
N60          C65   1.356   1_655  A
N60         C620   1.355       .  A
N60          H91   1.034       .  S
N61          C68   1.355       .  A
N61          C69   1.355       .  A
C62         N614   1.352       .  A
C62          C70   1.389       .  A
C62          C78   1.414       .  A
C63          C79   1.418       .  A
C63          C71   1.388       .  A
C64         N616   1.355       .  A
C64          C72   1.387       .  A
C64          C81   1.416       .  A
C65          C80   1.418       .  A
C65          C73   1.388       .  A
C66          C78   1.412       .  A
C66          C74   1.387       .  A
C67          C81   1.412       .  A
C67          C75   1.386       .  A
C68          C76   1.386       .  A
C68          C79   1.419       .  A
C69          C77   1.386       .  A
C69          C80   1.420       .  A
C70         C627   1.373       .  A
C70          H82   1.082       .  S
C71         C626   1.374   1_455  A
C71          H83   1.082       .  S
C72         C629   1.373       .  A
C72          H84   1.082       .  S
C73         C628   1.374   1_455  A
C73          H85   1.082       .  S
C74          C75   1.377       .  A
C74          H86   1.083       .  S
C75          H87   1.082       .  S
C76          C77   1.379       .  A
C76          H88   1.082       .  S
C77          H89   1.082       .  S
C78         C232   1.446       .  S
C79         C236   1.462       .  S
C80         C234   1.463       .  S
C81         C237   1.454       .  S
C92          C93   1.533       .  S
C92          C98   1.523       .  S
C92          C96   1.536       .  S
C92         C225   1.518       .  S
C93         H100   1.085       .  S
C93          C94   1.367       .  D
C94          C95   1.544       .  S
C94         C202   1.479       .  S
C95          C99   1.543       .  S
C95          C97   1.542       .  S
C95         H101   1.111       .  S
C96         H102   1.085       .  S
C96          C97   1.367       .  D
C97         C192   1.483       .  S
C98         H103   1.087       .  S
C98          C99   1.361       .  D
C99         C215   1.472       .  S
N104        C109   1.351   1_554  A
N104        C108   1.351   1_554  A
N104        H136   1.037       .  S
N105        C113   1.352       .  A
N105        C390   1.352   1_545  A
N106        C111   1.353   1_554  A
N106        C110   1.352   1_554  A
N106        H137   1.038       .  S
N107        C115   1.351   1_556  A
N107        C392   1.351   1_546  A
C108        C116   1.388       .  A
C108        C124   1.412   1_556  A
C109        C125   1.410   1_556  A
C109        C117   1.387       .  A
C110        C118   1.388       .  A
C110        C127   1.415   1_556  A
C111        C126   1.414       .  A
C111        C119   1.387       .  A
C112        N383   1.350       .  A
C112        C124   1.410       .  A
C112        C120   1.387       .  A
C113        C127   1.414       .  A
C113        C121   1.387       .  A
C114        N385   1.351   1_554  A
C114        C122   1.386       .  A
C114        C125   1.410       .  A
C115        C123   1.387       .  A
C115        C126   1.412   1_554  A
C116        C117   1.376       .  A
C116        H128   1.082       .  S
C117        H129   1.082       .  S
C118        C119   1.378       .  A
C118        H130   1.082       .  S
C119        H131   1.082       .  S
C120        C399   1.371       .  A
C120        H132   1.082       .  S
C121        C398   1.371   1_545  A
C121        H133   1.082       .  S
C122        C401   1.371       .  A
C122        H134   1.082       .  S
C123        C400   1.371   1_545  A
C123        H135   1.082       .  S
C124        C188   1.446       .  S
C125        C185   1.446       .  S
C126        C189   1.450       .  S
C127        C184   1.452   1_554  S
N138        N139   1.325       .  A
N138        N144   1.315       .  A
N138       Mn723   2.210       .  S
N139        C146   1.356       .  A
N140        N142   1.315       .  A
N140        N141   1.317       .  A
N140       Mn156   2.182       .  S
N141        C147   1.350       .  A
N142        N143   1.323       .  A
N142       Mn167   2.214       .  S
N143        C147   1.356       .  A
N144        N145   1.317       .  A
N144       Mn712   2.202       .  S
N145        C146   1.353       .  A
C146        C253   1.482       .  S
C147        C243   1.475       .  S
N148        N154   1.315   1_554  A
N148        N149   1.322       .  A
N148       Mn178   2.204       .  S
N149        C157   1.352       .  A
N150        N151   1.320       .  A
N150        N152   1.316   1_556  A
N150       Mn712   2.195       .  S
N151        C158   1.350   1_556  A
N152        N153   1.322       .  A
N152       Mn734   2.210   1_455  S
N153        C158   1.352       .  A
N154        N155   1.321       .  A
N154       Mn156   2.201       .  S
N155        C157   1.351   1_556  A
Mn156       N700   2.204       .  S
Mn156       N706   2.193       .  S
Mn156      Cl180   2.542   1_556  S
C157        C183   1.438   1_554  S
C158        C190   1.436   1_554  S
N159        N160   1.321       .  A
N159        N165   1.317   1_556  A
N159       Mn167   2.207       .  S
N160        C168   1.351   1_556  A
N161        N163   1.317   1_554  A
N161        N162   1.320       .  A
N161       Mn735   2.200   1_455  S
N162        C169   1.350       .  A
N163        N164   1.320       .  A
N163       Mn723   2.198       .  S
N164        C169   1.350   1_556  A
N165        N166   1.319       .  A
N165       Mn179   2.192       .  S
N166        C168   1.348       .  A
Mn167       N694   2.215       .  S
Mn167       N719   2.209       .  S
Mn167      Cl180   2.552   1_556  S
C168        C187   1.431       .  S
C169        C186   1.431       .  S
N170        N171   1.317       .  A
N170        N176   1.315       .  A
N170       Mn734   2.201   1_455  S
N171        C181   1.353       .  A
N172        N173   1.324       .  A
N172        N174   1.315       .  A
N172       Mn179   2.209       .  S
N173        C182   1.355       .  A
N174        N175   1.317       .  A
N174       Mn178   2.197       .  S
N175        C182   1.352       .  A
N176        N177   1.322       .  A
N176       Mn735   2.194   1_455  S
N177        C181   1.353       .  A
Mn178       N708   2.209       .  S
Mn178       N726   2.198       .  S
Mn178      Cl180   2.540       .  S
Mn179       N717   2.204       .  S
Mn179       N732   2.200       .  S
Mn179      Cl180   2.554       .  S
C181        C205   1.474       .  S
C182        C195   1.478       .  S
C183        C184   1.207       .  T
C185        C186   1.204       .  T
C187        C188   1.203       .  T
C189        C190   1.206       .  T
C191        C192   1.405       .  A
C191        C196   1.406       .  A
C191        H197   1.083       .  S
C192        C193   1.404       .  A
C193        C194   1.390       .  A
C193        H198   1.083       .  S
C194        C195   1.402       .  A
C194        H199   1.083       .  S
C195        C196   1.408       .  A
C196        H200   1.083       .  S
C201        C202   1.404       .  A
C201        C206   1.391       .  A
C201        H207   1.083       .  S
C202        C203   1.404       .  A
C203        C204   1.404       .  A
C203        H208   1.083       .  S
C204        C205   1.407       .  A
C204        H209   1.083       .  S
C205        C206   1.401       .  A
C206        H210   1.083       .  S
C211        C212   1.403       .  A
C211        C216   1.395       .  A
C211        H217   1.083       .  S
C212        C213   1.407       .  A
C213        C214   1.402       .  A
C213        H218   1.083       .  S
C214        C215   1.401       .  A
C214        H219   1.083       .  S
C215        C216   1.402       .  A
C216        H220   1.084       .  S
C221        C222   1.401       .  A
C221        C226   1.396       .  A
C221        H227   1.083       .  S
C222        C223   1.401       .  A
C223        C224   1.391       .  A
C223        H228   1.083       .  S
C224        C225   1.407       .  A
C224        H229   1.081       .  S
C225        C226   1.410       .  A
C226        H230   1.081       .  S
C231        C232   1.204       .  T
C233        C234   1.214       .  T
C235        C236   1.214       .  T
C237        C238   1.209       .  T
C239        C240   1.403       .  A
C239        C244   1.399       .  A
C239        H245   1.083       .  S
C240        C241   1.403       .  A
C241        C242   1.395       .  A
C241        H246   1.083       .  S
C242        C243   1.405       .  A
C242        H247   1.083       .  S
C243        C244   1.404       .  A
C244        H248   1.083       .  S
C249        C250   1.404       .  A
C249        C254   1.390       .  A
C249        H255   1.083       .  S
C250        C251   1.405       .  A
C251        C252   1.407       .  A
C251        H256   1.083       .  S
C252        C253   1.409       .  A
C252        H257   1.083       .  S
C253        C254   1.402       .  A
C254        H258   1.083       .  S
C259        C260   1.399       .  A
C259        C264   1.396       .  A
C259        H265   1.083       .  S
C260        C261   1.401       .  A
C261        C262   1.399       .  A
C261        H266   1.083       .  S
C262        C263   1.406       .  A
C262        H267   1.083       .  S
C263        C264   1.405       .  A
C264        H268   1.083       .  S
C269        C270   1.409       .  A
C269        C274   1.399       .  A
C269        H275   1.083       .  S
C270        C271   1.411       .  A
C271        C272   1.393       .  A
C271        H276   1.078       .  S
C272        C273   1.399       .  A
C272        H277   1.083       .  S
C273        C274   1.404       .  A
C274        H278   1.083       .  S
C279        C280   1.536       .  S
C279        C285   1.524       .  S
C279        C283   1.536       .  S
C279        C548   1.518       .  S
C280        H287   1.082       .  S
C280        C281   1.365       .  D
C281        C282   1.541       .  S
C281        C518   1.478       .  S
C282        C286   1.538       .  S
C282        C284   1.541       .  S
C282        H288   1.111       .  S
C283        H289   1.086       .  S
C283        C284   1.368       .  D
C284        C528   1.480       .  S
C285        H290   1.087       .  S
C285        C286   1.359       .  D
C286        C538   1.464       .  S
N291        N292   1.316       .  A
N291        N297   1.315       .  A
N292        C299   1.349       .  A
N293        N295   1.316       .  A
N293        N294   1.319       .  A
N293       Mn309   2.201       .  S
N294        C300   1.353       .  A
N295        N296   1.320       .  A
N295       Mn320   2.196       .  S
N296        C300   1.352       .  A
N297        N298   1.319       .  A
N298        C299   1.353       .  A
C299        C551   1.464       .  S
C300        C541   1.474       .  S
N301        N307   1.316       .  A
N301        N302   1.322       .  A
N301       Mn331   2.206       .  S
N302        C310   1.351       .  A
N303        N304   1.323       .  A
N303        N305   1.315       .  A
N304        C311   1.352       .  A
N305        N306   1.323       .  A
N306        C311   1.353       .  A
N307        N308   1.322       .  A
N307       Mn309   2.212       .  S
N308        C310   1.352       .  A
Mn309      Cl333   2.543       .  S
C310        C513   1.441       .  S
C311        C511   1.446       .  S
N312        N313   1.323       .  A
N312        N318   1.316       .  A
N312       Mn320   2.210       .  S
N313        C321   1.353       .  A
N314        N316   1.315       .  A
N314        N315   1.322       .  A
N315        C322   1.351       .  A
N316        N317   1.323       .  A
N317        C322   1.353       .  A
N318        N319   1.323       .  A
N318       Mn332   2.211       .  S
N319        C321   1.352       .  A
Mn320      Cl333   2.551       .  S
C321        C509   1.446       .  S
C322        C516   1.443       .  S
N323        N324   1.322       .  A
N323        N329   1.315       .  A
N324        C334   1.356       .  A
N325        N326   1.317       .  A
N325        N327   1.316       .  A
N325       Mn332   2.188       .  S
N326        C335   1.350       .  A
N327        N328   1.322       .  A
N327       Mn331   2.211       .  S
N328        C335   1.355       .  A
N329        N330   1.315       .  A
N330        C334   1.348       .  A
Mn331      Cl333   2.554       .  S
Mn332      Cl333   2.538       .  S
C334        C500   1.470       .  S
C335        C490   1.474       .  S
N336        C341   1.355   1_655  A
N336        C896   1.356       .  A
N336        H368   1.028       .  S
N337        C344   1.354       .  A
N337        C345   1.354       .  A
N338        C343   1.356   1_655  A
N338        C898   1.355       .  A
N338        H369   1.029       .  S
N339        C346   1.353       .  A
N339        C347   1.354       .  A
C340        N892   1.356       .  A
C340        C348   1.387       .  A
C340        C356   1.416       .  A
C341        C357   1.421       .  A
C341        C349   1.389       .  A
C342        N894   1.354       .  A
C342        C350   1.388       .  A
C342        C359   1.416       .  A
C343        C358   1.419       .  A
C343        C351   1.388       .  A
C344        C356   1.417       .  A
C344        C352   1.386       .  A
C345        C359   1.417       .  A
C345        C353   1.387       .  A
C346        C354   1.387       .  A
C346        C357   1.420       .  A
C347        C355   1.387       .  A
C347        C358   1.419       .  A
C348        C905   1.373       .  A
C348        H360   1.082       .  S
C349        C904   1.372   1_455  A
C349        H361   1.082       .  S
C350        C907   1.374       .  A
C350        H362   1.082       .  S
C351        C906   1.373   1_455  A
C351        H363   1.082       .  S
C352        C353   1.378       .  A
C352        H364   1.082       .  S
C353        H365   1.082       .  S
C354        C355   1.377       .  A
C354        H366   1.082       .  S
C355        H367   1.082       .  S
C356        C510   1.459       .  S
C357        C514   1.456       .  S
C358        C512   1.460       .  S
C359        C515   1.457       .  S
C370        C371   1.535       .  S
C370        C376   1.522       .  S
C370        C374   1.537       .  S
C370        C503   1.521       .  S
C371        H378   1.085       .  S
C371        C372   1.371       .  D
C372        C373   1.547       .  S
C372        C480   1.493       .  S
C373        C377   1.542       .  S
C373        C375   1.543       .  S
C373        H379   1.110       .  S
C374        H380   1.083       .  S
C374        C375   1.366       .  D
C375        C470   1.483       .  S
C376        H381   1.087       .  S
C376        C377   1.359       .  D
C377        C493   1.467       .  S
N382        C387   1.350   1_554  A
N382        C386   1.351   1_554  A
N382        H414   1.037       .  S
N383        C391   1.351       .  A
N384        C389   1.351   1_554  A
N384        C388   1.352   1_554  A
N384        H415   1.038       .  S
N385        C393   1.350   1_556  A
C386        C394   1.388       .  A
C386        C402   1.414   1_556  A
C387        C403   1.412   1_556  A
C387        C395   1.388       .  A
C388        C396   1.387       .  A
C388        C405   1.412   1_556  A
C389        C404   1.411       .  A
C389        C397   1.388       .  A
C390        C402   1.414       .  A
C390        C398   1.387       .  A
C391        C405   1.410       .  A
C391        C399   1.387       .  A
C392        C400   1.388       .  A
C392        C403   1.412       .  A
C393        C401   1.388       .  A
C393        C404   1.411   1_554  A
C394        C395   1.377       .  A
C394        H406   1.082       .  S
C395        H407   1.082       .  S
C396        C397   1.378       .  A
C396        H408   1.082       .  S
C397        H409   1.083       .  S
C398        H410   1.082       .  S
C399        H411   1.082       .  S
C400        H412   1.082       .  S
C401        H413   1.082       .  S
C402        C466   1.448       .  S
C403        C463   1.443   1_554  S
C404        C467   1.444       .  S
C405        C462   1.449       .  S
N416        N417   1.325       .  A
N416        N422   1.315       .  A
N416      Mn1001   2.213       .  S
N417        C424   1.357       .  A
N418        N420   1.316       .  A
N418        N419   1.317       .  A
N418       Mn434   2.195       .  S
N419        C425   1.352       .  A
N420        N421   1.322       .  A
N420       Mn445   2.206       .  S
N421        C425   1.354       .  A
N422        N423   1.316       .  A
N422       Mn990   2.190       .  S
N423        C424   1.350       .  A
C424        C531   1.478       .  S
C425        C521   1.474       .  S
N426        N432   1.315   1_554  A
N426        N427   1.320       .  A
N426       Mn456   2.197       .  S
N427        C435   1.350       .  A
N428        N429   1.319       .  A
N428        N430   1.315   1_556  A
N428       Mn990   2.190       .  S
N429        C436   1.348       .  A
N430        N431   1.320       .  A
N430      Mn1012   2.202       .  S
N431        C436   1.351   1_554  A
N432        N433   1.321       .  A
N432       Mn434   2.200       .  S
N433        C435   1.351   1_556  A
Mn434       N978   2.187       .  S
Mn434       N984   2.193       .  S
Mn434      Cl458   2.539   1_556  S
C435        C461   1.434       .  S
C436        C468   1.430       .  S
N437        N438   1.320       .  A
N437        N443   1.317   1_556  A
N437       Mn445   2.196       .  S
N438        C446   1.349   1_556  A
N439        N441   1.317   1_554  A
N439        N440   1.319       .  A
N439      Mn1013   2.195       .  S
N440        C447   1.349   1_554  A
N441        N442   1.319       .  A
N441      Mn1001   2.195       .  S
N442        C447   1.349       .  A
N443        N444   1.321       .  A
N443       Mn457   2.208       .  S
N444        C446   1.351       .  A
Mn445       N972   2.199       .  S
Mn445       N997   2.202       .  S
Mn445      Cl458   2.553   1_556  S
C446        C465   1.433       .  S
C447        C464   1.427       .  S
N448        N449   1.316       .  A
N448        N454   1.315       .  A
N448      Mn1012   2.193       .  S
N449        C459   1.351       .  A
N450        N451   1.322       .  A
N450        N452   1.315       .  A
N450       Mn457   2.202       .  S
N451        C460   1.354       .  A
N452        N453   1.318       .  A
N452       Mn456   2.203       .  S
N453        C460   1.354       .  A
N454        N455   1.326       .  A
N454      Mn1013   2.218       .  S
N455        C459   1.358       .  A
Mn456       N986   2.204       .  S
Mn456      N1004   2.191       .  S
Mn456      Cl458   2.541       .  S
Mn457       N995   2.189       .  S
Mn457      N1010   2.219       .  S
Mn457      Cl458   2.550       .  S
C459        C483   1.483       .  S
C460        C473   1.478       .  S
C461        C462   1.205       .  T
C463        C464   1.201       .  T
C465        C466   1.205       .  T
C467        C468   1.203       .  T
C469        C470   1.404       .  A
C469        C474   1.405       .  A
C469        H475   1.083       .  S
C470        C471   1.404       .  A
C471        C472   1.391       .  A
C471        H476   1.083       .  S
C472        C473   1.401       .  A
C472        H477   1.083       .  S
C473        C474   1.408       .  A
C474        H478   1.083       .  S
C479        C480   1.406       .  A
C479        C484   1.391       .  A
C479        H485   1.082       .  S
C480        C481   1.408       .  A
C481        C482   1.408       .  A
C481        H486   1.082       .  S
C482        C483   1.407       .  A
C482        H487   1.083       .  S
C483        C484   1.403       .  A
C484        H488   1.083       .  S
C489        C490   1.405       .  A
C489        C494   1.400       .  A
C489        H495   1.083       .  S
C490        C491   1.405       .  A
C491        C492   1.394       .  A
C491        H496   1.083       .  S
C492        C493   1.400       .  A
C492        H497   1.084       .  S
C493        C494   1.401       .  A
C494        H498   1.083       .  S
C499        C500   1.400       .  A
C499        C504   1.396       .  A
C499        H505   1.083       .  S
C500        C501   1.402       .  A
C501        C502   1.392       .  A
C501        H506   1.083       .  S
C502        C503   1.408       .  A
C502        H507   1.079       .  S
C503        C504   1.410       .  A
C504        H508   1.083       .  S
C509        C510   1.212       .  T
C511        C512   1.212       .  T
C513        C514   1.210       .  T
C515        C516   1.211       .  T
C517        C518   1.403       .  A
C517        C522   1.403       .  A
C517        H523   1.083       .  S
C518        C519   1.404       .  A
C519        C520   1.390       .  A
C519        H524   1.083       .  S
C520        C521   1.402       .  A
C520        H525   1.083       .  S
C521        C522   1.407       .  A
C522        H526   1.083       .  S
C527        C528   1.402       .  A
C527        C532   1.391       .  A
C527        H533   1.083       .  S
C528        C529   1.405       .  A
C529        C530   1.405       .  A
C529        H534   1.083       .  S
C530        C531   1.406       .  A
C530        H535   1.083       .  S
C531        C532   1.404       .  A
C532        H536   1.083       .  S
C537        C538   1.399       .  A
C537        C542   1.396       .  A
C537        H543   1.083       .  S
C538        C539   1.401       .  A
C539        C540   1.396       .  A
C539        H544   1.084       .  S
C540        C541   1.405       .  A
C540        H545   1.083       .  S
C541        C542   1.405       .  A
C542        H546   1.083       .  S
C547        C548   1.409       .  A
C547        C552   1.391       .  A
C547        H553   1.078       .  S
C548        C549   1.408       .  A
C549        C550   1.394       .  A
C549        H554   1.083       .  S
C550        C551   1.400       .  A
C550        H555   1.083       .  S
C551        C552   1.399       .  A
C552        H556   1.083       .  S
C557        C558   1.538       .  S
C557        C563   1.525       .  S
C557        C561   1.536       .  S
C557        C826   1.523       .  S
C558        H565   1.083       .  S
C558        C559   1.365       .  D
C559        C560   1.538       .  S
C559        C796   1.474       .  S
C560        C564   1.538       .  S
C560        C562   1.544       .  S
C560        H566   1.110       .  S
C561        H567   1.085       .  S
C561        C562   1.370       .  D
C562        C806   1.490       .  S
C563        H568   1.087       .  S
C563        C564   1.361       .  D
C564        C816   1.466       .  S
N569        N570   1.316       .  A
N569        N575   1.315       .  A
N569       Mn876   2.188   1_545  S
N570        C577   1.350       .  A
N571        N573   1.316       .  A
N571        N572   1.320       .  A
N571       Mn587   2.203       .  S
N572        C578   1.354       .  A
N573        N574   1.318       .  A
N573       Mn598   2.191       .  S
N574        C578   1.351       .  A
N575        N576   1.323       .  A
N575       Mn865   2.207   1_545  S
N576        C577   1.356       .  A
C577        C829   1.473       .  S
C578        C819   1.472       .  S
N579        N585   1.317       .  A
N579        N580   1.323       .  A
N579       Mn609   2.215       .  S
N580        C588   1.353       .  A
N581        N582   1.323       .  A
N581        N583   1.316       .  A
N581       Mn865   2.206   1_545  S
N582        C589   1.352       .  A
N583        N584   1.323       .  A
N583       Mn887   2.214   1_545  S
N584        C589   1.352       .  A
N585        N586   1.322       .  A
N585       Mn587   2.214       .  S
N586        C588   1.352       .  A
Mn587       N853   2.204       .  S
Mn587       N859   2.207       .  S
Mn587      Cl611   2.546       .  S
C588        C791   1.445       .  S
C589        C789   1.444       .  S
N590        N591   1.323       .  A
N590        N596   1.316       .  A
N590       Mn598   2.210       .  S
N591        C599   1.353       .  A
N592        N594   1.315       .  A
N592        N593   1.322       .  A
N592       Mn888   2.208   1_545  S
N593        C600   1.352       .  A
N594        N595   1.323       .  A
N594       Mn876   2.205   1_545  S
N595        C600   1.352       .  A
N596        N597   1.321       .  A
N596       Mn610   2.206       .  S
N597        C599   1.351       .  A
Mn598       N847   2.187       .  S
Mn598       N872   2.206       .  S
Mn598      Cl611   2.547       .  S
C599        C787   1.442       .  S
C600        C794   1.443       .  S
N601        N602   1.320       .  A
N601        N607   1.316       .  A
N601       Mn887   2.200   1_545  S
N602        C612   1.353       .  A
N603        N604   1.320       .  A
N603        N605   1.315       .  A
N603       Mn610   2.195       .  S
N604        C613   1.353       .  A
N605        N606   1.319       .  A
N605       Mn609   2.195       .  S
N606        C613   1.352       .  A
N607        N608   1.318       .  A
N607       Mn888   2.195   1_545  S
N608        C612   1.351       .  A
Mn609       N861   2.201       .  S
Mn609       N879   2.201       .  S
Mn609      Cl611   2.547       .  S
Mn610       N870   2.201       .  S
Mn610       N885   2.191       .  S
Mn610      Cl611   2.544       .  S
C612        C778   1.471       .  S
C613        C768   1.473       .  S
N614        C619   1.354       .  A
N614        H646   1.035       .  S
N615        C622   1.353       .  A
N615        C623   1.353       .  A
N616        C621   1.354       .  A
N616        H647   1.036       .  S
N617        C624   1.354       .  A
N617        C625   1.353       .  A
C618        C626   1.388       .  A
C618        C634   1.417       .  A
C619        C635   1.414       .  A
C619        C627   1.388       .  A
C620        C628   1.388       .  A
C620        C637   1.418       .  A
C621        C636   1.416       .  A
C621        C629   1.388       .  A
C622        C634   1.416       .  A
C622        C630   1.387       .  A
C623        C637   1.416       .  A
C623        C631   1.387       .  A
C624        C632   1.386       .  A
C624        C635   1.416       .  A
C625        C633   1.387       .  A
C625        C636   1.417       .  A
C626        H638   1.082       .  S
C627        H639   1.082       .  S
C628        H640   1.082       .  S
C629        H641   1.082       .  S
C630        C631   1.377       .  A
C630        H642   1.082       .  S
C631        H643   1.082       .  S
C632        C633   1.378       .  A
C632        H644   1.082       .  S
C633        H645   1.082       .  S
C634        C788   1.456       .  S
C635        C792   1.458       .  S
C636        C790   1.457       .  S
C637        C793   1.457       .  S
C648        C649   1.533       .  S
C648        C654   1.526       .  S
C648        C652   1.539       .  S
C648        C781   1.522       .  S
C649        H656   1.086       .  S
C649        C650   1.368       .  D
C650        C651   1.541       .  S
C650        C758   1.482       .  S
C651        C655   1.539       .  S
C651        C653   1.539       .  S
C651        H657   1.111       .  S
C652        H658   1.084       .  S
C652        C653   1.367       .  D
C653        C748   1.479       .  S
C654        H659   1.087       .  S
C654        C655   1.361       .  D
C655        C771   1.465       .  S
N660        C665   1.352   1_554  A
N660        C664   1.351   1_554  A
N660        H692   1.037       .  S
N661        C946   1.352   1_546  A
N661        C669   1.352   1_556  A
N662        C667   1.353   1_554  A
N662        C666   1.352   1_554  A
N662        H693   1.038       .  S
N663        C948   1.350   1_545  A
N663        C671   1.351       .  A
C664        C672   1.388       .  A
C664        C680   1.413   1_556  A
C665        C681   1.413   1_556  A
C665        C673   1.387       .  A
C666        C674   1.388       .  A
C666        C683   1.414       .  A
C667        C682   1.413   1_556  A
C667        C675   1.387       .  A
C668        N939   1.350       .  A
C668        C680   1.411       .  A
C668        C676   1.388       .  A
C669        C683   1.413   1_554  A
C669        C677   1.387       .  A
C670        N941   1.352       .  A
C670        C678   1.386       .  A
C670        C681   1.412       .  A
C671        C679   1.387       .  A
C671        C682   1.411       .  A
C672        C673   1.377       .  A
C672        H684   1.082       .  S
C673        H685   1.082       .  S
C674        C675   1.378       .  A
C674        H686   1.082       .  S
C675        H687   1.082       .  S
C676        C955   1.371       .  A
C676        H688   1.082       .  S
C677        C954   1.370   1_545  A
C677        H689   1.082       .  S
C678        C957   1.373       .  A
C678        H690   1.082       .  S
C679        C956   1.371   1_545  A
C679        H691   1.082       .  S
C680        C744   1.445       .  S
C681        C741   1.451       .  S
C682        C745   1.450       .  S
C683        C740   1.451       .  S
N694        N695   1.326       .  A
N694        N700   1.315       .  A
N695        C702   1.357       .  A
N696        N698   1.315       .  A
N696        N697   1.317       .  A
N696       Mn712   2.188   1_655  S
N697        C703   1.351       .  A
N698        N699   1.321       .  A
N698       Mn723   2.200   1_655  S
N699        C703   1.354       .  A
N700        N701   1.318       .  A
N701        C702   1.353       .  A
C702        C809   1.485       .  S
C703        C799   1.470       .  S
N704        N710   1.315   1_554  A
N704        N705   1.321       .  A
N704       Mn734   2.205       .  S
N705        C713   1.352   1_554  A
N706        N707   1.320       .  A
N706        N708   1.316   1_556  A
N707        C714   1.349   1_556  A
N708        N709   1.322       .  A
N709        C714   1.352       .  A
N710        N711   1.321       .  A
N710       Mn712   2.200   1_655  S
N711        C713   1.350       .  A
Mn712      Cl736   2.539   1_456  S
C713        C739   1.437       .  S
C714        C746   1.436       .  S
N715        N716   1.320       .  A
N715        N721   1.316   1_556  A
N715       Mn723   2.203   1_655  S
N716        C724   1.350   1_556  A
N717        N719   1.318   1_554  A
N717        N718   1.321       .  A
N718        C725   1.350       .  A
N719        N720   1.321       .  A
N720        C725   1.351   1_556  A
N721        N722   1.319       .  A
N721       Mn735   2.190       .  S
N722        C724   1.348       .  A
Mn723      Cl736   2.552   1_456  S
C724        C743   1.429       .  S
C725        C742   1.436       .  S
N726        N727   1.316       .  A
N726        N732   1.315       .  A
N727        C737   1.352       .  A
N728        N729   1.323       .  A
N728        N730   1.315       .  A
N728       Mn735   2.201       .  S
N729        C738   1.353       .  A
N730        N731   1.319       .  A
N730       Mn734   2.208       .  S
N731        C738   1.354       .  A
N732        N733   1.324       .  A
N733        C737   1.355       .  A
Mn734      Cl736   2.541       .  S
Mn735      Cl736   2.550       .  S
C737        C761   1.476       .  S
C738        C751   1.478       .  S
C739        C740   1.207       .  T
C741        C742   1.207       .  T
C743        C744   1.202       .  T
C745        C746   1.206       .  T
C747        C748   1.404       .  A
C747        C752   1.405       .  A
C747        H753   1.083       .  S
C748        C749   1.402       .  A
C749        C750   1.392       .  A
C749        H754   1.083       .  S
C750        C751   1.402       .  A
C750        H755   1.083       .  S
C751        C752   1.408       .  A
C752        H756   1.083       .  S
C757        C758   1.403       .  A
C757        C762   1.387       .  A
C757        H763   1.083       .  S
C758        C759   1.406       .  A
C759        C760   1.406       .  A
C759        H764   1.083       .  S
C760        C761   1.408       .  A
C760        H765   1.083       .  S
C761        C762   1.401       .  A
C762        H766   1.083       .  S
C767        C768   1.406       .  A
C767        C772   1.397       .  A
C767        H773   1.083       .  S
C768        C769   1.404       .  A
C769        C770   1.396       .  A
C769        H774   1.083       .  S
C770        C771   1.401       .  A
C770        H775   1.083       .  S
C771        C772   1.399       .  A
C772        H776   1.083       .  S
C777        C778   1.401       .  A
C777        C782   1.396       .  A
C777        H783   1.083       .  S
C778        C779   1.401       .  A
C779        C780   1.394       .  A
C779        H784   1.083       .  S
C780        C781   1.408       .  A
C780        H785   1.079       .  S
C781        C782   1.410       .  A
C782        H786   1.083       .  S
C787        C788   1.210       .  T
C789        C790   1.211       .  T
C791        C792   1.211       .  T
C793        C794   1.210       .  T
C795        C796   1.402       .  A
C795        C800   1.401       .  A
C795        H801   1.083       .  S
C796        C797   1.403       .  A
C797        C798   1.391       .  A
C797        H802   1.083       .  S
C798        C799   1.402       .  A
C798        H803   1.083       .  S
C799        C800   1.405       .  A
C800        H804   1.083       .  S
C805        C806   1.404       .  A
C805        C810   1.391       .  A
C805        H811   1.082       .  S
C806        C807   1.408       .  A
C807        C808   1.408       .  A
C807        H812   1.083       .  S
C808        C809   1.408       .  A
C808        H813   1.083       .  S
C809        C810   1.403       .  A
C810        H814   1.083       .  S
C815        C816   1.401       .  A
C815        C820   1.395       .  A
C815        H821   1.083       .  S
C816        C817   1.399       .  A
C817        C818   1.398       .  A
C817        H822   1.083       .  S
C818        C819   1.407       .  A
C818        H823   1.083       .  S
C819        C820   1.403       .  A
C820        H824   1.083       .  S
C825        C826   1.408       .  A
C825        C830   1.393       .  A
C825        H831   1.078       .  S
C826        C827   1.410       .  A
C827        C828   1.398       .  A
C827        H832   1.083       .  S
C828        C829   1.401       .  A
C828        H833   1.083       .  S
C829        C830   1.402       .  A
C830        H834   1.083       .  S
C835        C836   1.535       .  S
C835        C841   1.521       .  S
C835        C839   1.534       .  S
C835       C1104   1.516       .  S
C836        H843   1.084       .  S
C836        C837   1.366       .  D
C837        C838   1.543       .  S
C837       C1074   1.483       .  S
C838        C842   1.540       .  S
C838        C840   1.542       .  S
C838        H844   1.111       .  S
C839        H845   1.085       .  S
C839        C840   1.368       .  D
C840       C1084   1.476       .  S
C841        H846   1.087       .  S
C841        C842   1.359       .  D
C842       C1094   1.465       .  S
N847        N848   1.316       .  A
N847        N853   1.316       .  A
N848        C855   1.350       .  A
N849        N851   1.315       .  A
N849        N850   1.319       .  A
N849       Mn865   2.201       .  S
N850        C856   1.353       .  A
N851        N852   1.319       .  A
N851       Mn876   2.194       .  S
N852        C856   1.352       .  A
N853        N854   1.321       .  A
N854        C855   1.354       .  A
C855       C1107   1.469       .  S
C856       C1097   1.473       .  S
N857        N863   1.317       .  A
N857        N858   1.323       .  A
N857       Mn887   2.213       .  S
N858        C866   1.353       .  A
N859        N860   1.322       .  A
N859        N861   1.315       .  A
N860        C867   1.352       .  A
N861        N862   1.322       .  A
N862        C867   1.351       .  A
N863        N864   1.322       .  A
N863       Mn865   2.207       .  S
N864        C866   1.351       .  A
Mn865      Cl889   2.547       .  S
C866       C1069   1.442       .  S
C867       C1067   1.441       .  S
N868        N869   1.323       .  A
N868        N874   1.316       .  A
N868       Mn876   2.209       .  S
N869        C877   1.353       .  A
N870        N872   1.314       .  A
N870        N871   1.321       .  A
N871        C878   1.350       .  A
N872        N873   1.323       .  A
N873        C878   1.353       .  A
N874        N875   1.323       .  A
N874       Mn888   2.212       .  S
N875        C877   1.353       .  A
Mn876      Cl889   2.547       .  S
C877       C1065   1.446       .  S
C878       C1072   1.442       .  S
N879        N880   1.320       .  A
N879        N885   1.316       .  A
N880        C890   1.354       .  A
N881        N882   1.319       .  A
N881        N883   1.316       .  A
N881       Mn888   2.194       .  S
N882        C891   1.352       .  A
N883        N884   1.321       .  A
N883       Mn887   2.212       .  S
N884        C891   1.355       .  A
N885        N886   1.318       .  A
N886        C890   1.351       .  A
Mn887      Cl889   2.548       .  S
Mn888      Cl889   2.544       .  S
C890       C1056   1.471       .  S
C891       C1046   1.478       .  S
N892        C897   1.355       .  A
N892        H924   1.035       .  S
N893        C900   1.355       .  A
N893        C901   1.354       .  A
N894        C899   1.354       .  A
N894        H925   1.033       .  S
N895        C902   1.352       .  A
N895        C903   1.352       .  A
C896        C904   1.388       .  A
C896        C912   1.421       .  A
C897        C913   1.416       .  A
C897        C905   1.388       .  A
C898        C906   1.388       .  A
C898        C915   1.420       .  A
C899        C914   1.416       .  A
C899        C907   1.388       .  A
C900        C912   1.420       .  A
C900        C908   1.387       .  A
C901        C915   1.420       .  A
C901        C909   1.387       .  A
C902        C910   1.387       .  A
C902        C913   1.415       .  A
C903        C911   1.387       .  A
C903        C914   1.415       .  A
C904        H916   1.082       .  S
C905        H917   1.082       .  S
C906        H918   1.082       .  S
C907        H919   1.082       .  S
C908        C909   1.377       .  A
C908        H920   1.082       .  S
C909        H921   1.082       .  S
C910        C911   1.378       .  A
C910        H922   1.082       .  S
C911        H923   1.082       .  S
C912       C1066   1.461       .  S
C913       C1070   1.456       .  S
C914       C1068   1.455       .  S
C915       C1071   1.457       .  S
C926        C927   1.536       .  S
C926        C932   1.523       .  S
C926        C930   1.537       .  S
C926       C1059   1.522       .  S
C927        H934   1.084       .  S
C927        C928   1.370       .  D
C928        C929   1.546       .  S
C928       C1036   1.493       .  S
C929        C933   1.543       .  S
C929        C931   1.544       .  S
C929        H935   1.110       .  S
C930        H936   1.084       .  S
C930        C931   1.368       .  D
C931       C1026   1.484       .  S
C932        H937   1.087       .  S
C932        C933   1.360       .  D
C933       C1049   1.469       .  S
N938        C943   1.351       .  A
N938        C942   1.352   1_554  A
N938        H970   1.037       .  S
N939        C947   1.350       .  A
N940        C945   1.351   1_554  A
N940        C944   1.352   1_554  A
N940        H971   1.039       .  S
N941        C949   1.351       .  A
C942        C950   1.388       .  A
C942        C958   1.413   1_556  A
C943        C959   1.412       .  A
C943        C951   1.388   1_554  A
C944        C952   1.387       .  A
C944        C961   1.412       .  A
C945        C960   1.411       .  A
C945        C953   1.388       .  A
C946        C958   1.413       .  A
C946        C954   1.386       .  A
C947        C961   1.409   1_554  A
C947        C955   1.387       .  A
C948        C956   1.388       .  A
C948        C959   1.411       .  A
C949        C957   1.387       .  A
C949        C960   1.412   1_554  A
C950        C951   1.376       .  A
C950        H962   1.082       .  S
C951        H963   1.082       .  S
C952        C953   1.378       .  A
C952        H964   1.082       .  S
C953        H965   1.082       .  S
C954        H966   1.082       .  S
C955        H967   1.082       .  S
C956        H968   1.082       .  S
C957        H969   1.082       .  S
C958       C1022   1.450   1_554  S
C959       C1019   1.443       .  S
C960       C1023   1.446       .  S
C961       C1018   1.447       .  S
N972        N973   1.323       .  A
N972        N978   1.314       .  A
N973        C980   1.355       .  A
N974        N976   1.315       .  A
N974        N975   1.317       .  A
N974       Mn990   2.194   1_655  S
N975        C981   1.352       .  A
N976        N977   1.323       .  A
N976      Mn1001   2.204   1_655  S
N977        C981   1.355       .  A
N978        N979   1.315       .  A
N979        C980   1.350       .  A
C980       C1087   1.472       .  S
C981       C1077   1.476       .  S
N982        N988   1.315   1_554  A
N982        N983   1.320       .  A
N982      Mn1012   2.194   1_655  S
N983        C991   1.350   1_554  A
N984        N985   1.320       .  A
N984        N986   1.315   1_556  A
N985        C992   1.349       .  A
N986        N987   1.321       .  A
N987        C992   1.351   1_554  A
N988        N989   1.321       .  A
N988       Mn990   2.199   1_655  S
N989        C991   1.351       .  A
Mn990     Cl1014   2.538       .  S
C991       C1017   1.433       .  S
C992       C1024   1.432       .  S
N993        N994   1.321       .  A
N993        N999   1.318   1_556  A
N993      Mn1001   2.204   1_655  S
N994       C1002   1.350       .  A
N995        N997   1.317   1_554  A
N995        N996   1.318       .  A
N996       C1003   1.348       .  A
N997        N998   1.320       .  A
N998       C1003   1.351   1_556  A
N999       N1000   1.321       .  A
N999      Mn1013   2.207   1_655  S
N1000      C1002   1.350   1_554  A
Mn1001    Cl1014   2.556       .  S
C1002      C1021   1.435       .  S
C1003      C1020   1.428       .  S
N1004      N1005   1.316       .  A
N1004      N1010   1.314       .  A
N1005      C1015   1.351       .  A
N1006      N1007   1.323       .  A
N1006      N1008   1.315       .  A
N1006     Mn1013   2.208   1_655  S
N1007      C1016   1.355       .  A
N1008      N1009   1.319       .  A
N1008     Mn1012   2.201   1_655  S
N1009      C1016   1.353       .  A
N1010      N1011   1.327       .  A
N1011      C1015   1.358       .  A
Mn1012    Cl1014   2.544   1_554  S
Mn1013    Cl1014   2.550   1_554  S
C1015      C1039   1.484       .  S
C1016      C1029   1.480       .  S
C1017      C1018   1.204       .  T
C1019      C1020   1.202       .  T
C1021      C1022   1.206       .  T
C1023      C1024   1.204       .  T
C1025      C1026   1.404       .  A
C1025      C1030   1.404       .  A
C1025      H1031   1.083       .  S
C1026      C1027   1.405       .  A
C1027      C1028   1.393       .  A
C1027      H1032   1.083       .  S
C1028      C1029   1.403       .  A
C1028      H1033   1.083       .  S
C1029      C1030   1.407       .  A
C1030      H1034   1.083       .  S
C1035      C1036   1.406       .  A
C1035      C1040   1.391       .  A
C1035      H1041   1.082       .  S
C1036      C1037   1.408       .  A
C1037      C1038   1.408       .  A
C1037      H1042   1.082       .  S
C1038      C1039   1.407       .  A
C1038      H1043   1.083       .  S
C1039      C1040   1.403       .  A
C1040      H1044   1.083       .  S
C1045      C1046   1.405       .  A
C1045      C1050   1.398       .  A
C1045      H1051   1.083       .  S
C1046      C1047   1.407       .  A
C1047      C1048   1.398       .  A
C1047      H1052   1.083       .  S
C1048      C1049   1.400       .  A
C1048      H1053   1.084       .  S
C1049      C1050   1.401       .  A
C1050      H1054   1.083       .  S
C1055      C1056   1.401       .  A
C1055      C1060   1.395       .  A
C1055      H1061   1.083       .  S
C1056      C1057   1.403       .  A
C1057      C1058   1.395       .  A
C1057      H1062   1.083       .  S
C1058      C1059   1.408       .  A
C1058      H1063   1.081       .  S
C1059      C1060   1.410       .  A
C1060      H1064   1.082       .  S
C1065      C1066   1.212       .  T
C1067      C1068   1.209       .  T
C1069      C1070   1.210       .  T
C1071      C1072   1.210       .  T
C1073      C1074   1.404       .  A
C1073      C1078   1.404       .  A
C1073      H1079   1.083       .  S
C1074      C1075   1.405       .  A
C1075      C1076   1.390       .  A
C1075      H1080   1.083       .  S
C1076      C1077   1.401       .  A
C1076      H1081   1.083       .  S
C1077      C1078   1.407       .  A
C1078      H1082   1.083       .  S
C1083      C1084   1.402       .  A
C1083      C1088   1.389       .  A
C1083      H1089   1.083       .  S
C1084      C1085   1.404       .  A
C1085      C1086   1.403       .  A
C1085      H1090   1.083       .  S
C1086      C1087   1.406       .  A
C1086      H1091   1.083       .  S
C1087      C1088   1.402       .  A
C1088      H1092   1.083       .  S
C1093      C1094   1.401       .  A
C1093      C1098   1.395       .  A
C1093      H1099   1.084       .  S
C1094      C1095   1.399       .  A
C1095      C1096   1.398       .  A
C1095      H1100   1.083       .  S
C1096      C1097   1.406       .  A
C1096      H1101   1.083       .  S
C1097      C1098   1.404       .  A
C1098      H1102   1.083       .  S
C1103      C1104   1.407       .  A
C1103      C1108   1.391       .  A
C1103      H1109   1.081       .  S
C1104      C1105   1.409       .  A
C1105      C1106   1.396       .  A
C1105      H1110   1.082       .  S
C1106      C1107   1.401       .  A
C1106      H1111   1.083       .  S
C1107      C1108   1.401       .  A
C1108      H1112   1.083       .  S
