geometry optimzed in LAMMPS
_audit_creation_date              2020-12-01 
_audit_creation_method            'lammps2cif' 
_symmetry_space_group_name_H-M    'P1' 
_symmetry_Int_Tables_number       1 
_symmetry_cell_setting            triclinic 
loop_ 
_symmetry_equiv_pos_as_xyz 
  x,y,z 
_cell_length_a                    37.54548188 
_cell_length_b                    37.58048207563991 
_cell_length_c                    50.569236147608464 
_cell_angle_alpha                 89.92777334189283 
_cell_angle_beta                  90.03610127349404 
_cell_angle_gamma                 89.97185017203302 
loop_ 
_atom_site_label 
_atom_site_type_symbol 
_atom_site_fract_x 
_atom_site_fract_y 
_atom_site_fract_z 
_atom_site_charge 
C1          C  0.43348024  0.31513708  0.35800085     0.79800
N2          N  0.45018043  0.34140991  0.34430590    -0.78500
C3          C  0.43998654  0.34953714  0.31927817     0.82300
N4          N  0.41295489  0.33134419  0.30780568    -0.78400
C5          C  0.39666077  0.30456435  0.32108978     0.82400
N6          N  0.40713419  0.29632018  0.34603761    -0.80200
C7          C  0.39965443  0.34631826  0.13901043     0.79800
N8          N  0.38171918  0.32083418  0.15281139    -0.78500
C9          C  0.38989118  0.31408887  0.17849475     0.82300
N10         N  0.41561052  0.33333845  0.19061233    -0.78400
C11         C  0.43459798  0.35775678  0.17685617     0.82400
N12         N  0.42615035  0.36469362  0.15126854    -0.80200
C13         C  0.17068898  0.34774485  0.36112033     0.79800
N14         N  0.19005219  0.32236437  0.34841290    -0.78500
C15         C  0.18266756  0.31354219  0.32296210     0.82300
N16         N  0.15667968  0.33117248  0.30971664    -0.78400
C17         C  0.13639544  0.35562958  0.32239112     0.82400
N18         N  0.14361177  0.36398705  0.34790924    -0.80200
C19         C  0.43957161  0.11652806  0.14490881     0.79800
N20         N  0.41285222  0.13332484  0.15796001    -0.78500
C21         C  0.40132622  0.12131894  0.18177456     0.82300
N22         N  0.41680514  0.09227327  0.19292738    -0.78400
C23         C  0.44382642  0.07547758  0.18016665     0.82400
N24         N  0.45474245  0.08744749  0.15617152    -0.80200
C25         C  0.45794452  0.37802970  0.30484112     0.42000
N26         N  0.99355452  0.42158999  0.29681781     0.00900
C27         C  0.99631247  0.02660176  0.18292890    -0.06900
H28         H  0.00468987  0.39536566  0.16336577     0.06400
C29         C  0.12469812  0.39567878  0.21885873    -0.07300
Co30       Co  0.47160380  0.46069389  0.24748837     0.74200
N31         N  0.99847629  0.42404977  0.20015032    -0.26500
Co32       Co  0.03925984  0.46166234  0.20151447     0.74100
C33         C  0.11352605  0.37958371  0.19410566     0.42200
N34         N  0.09780433  0.42050040  0.28124270     0.00600
N35         N  0.07818919  0.42231676  0.20316310     0.00700
N36         N  0.45052773  0.02692502  0.21375288    -0.47300
H37         H  0.42378711  0.38927795  0.26792790     0.06400
N38         N  0.47403233  0.42219067  0.21807771     0.00900
N39         N  0.07981483  0.49959619  0.20365645     0.00700
C40         C  0.11564009  0.04227176  0.19474061     0.42300
N41         N  0.07274512  0.42096489  0.29950305    -0.25900
C42         C  0.44738590  0.02594489  0.28022627    -0.06800
N43         N  0.98705488  0.39623710  0.31434428    -0.47000
N44         N  0.08768655  0.02386840  0.18495635    -0.47300
C45         C  0.45739950  0.04126497  0.30555313     0.42100
N46         N  0.47437298  0.49989500  0.21824164     0.00900
N47         N  0.07303264  0.49818325  0.30008894    -0.25900
N48         N  0.47001459  0.42142494  0.27663991    -0.26400
N49         N  0.09872082  0.49844530  0.28227191     0.00600
H50         H  0.06117610  0.03051645  0.33222991     0.06500
H51         H  0.14864308  0.03088744  0.23207190     0.06500
N52         N  0.00028246  0.50082267  0.20143592    -0.26500
N53         N  0.10140187  0.42201321  0.22279419    -0.26100
N54         N  0.99357229  0.49874898  0.29796436     0.00900
C55         C  0.45894287  0.38109392  0.19113339     0.42300
C56         C  0.07952191  0.39509797  0.31711286    -0.07400
N57         N  0.10247463  0.49928732  0.22361673    -0.26100
H58         H  0.14741240  0.38958456  0.23123137     0.06500
N59         N  0.44940485  0.39785757  0.21353248    -0.47300
H60         H  0.06450674  0.38990136  0.33494999     0.06500
C61         C  0.11016215  0.04196373  0.30625529     0.42200
C62         C  0.44656827  0.39498747  0.28031562    -0.06800
Co63       Co  0.03322386  0.45986993  0.29919845     0.73800
N64         N  0.12174577  0.39524739  0.28528824    -0.47000
C65         C  0.46177472  0.04483279  0.19216648     0.42400
N66         N  0.98623495  0.02128511  0.31442428    -0.47000
Co67       Co  0.10076845  0.46007386  0.25256108     0.73900
C68         C  0.12607395  0.02535237  0.21942947    -0.07400
C69         C  0.99019858  0.39995185  0.18152414    -0.06900
N70         N  0.47078774  0.49896297  0.27718964    -0.26400
N71         N  0.08467416  0.39741325  0.18525441    -0.47200
H72         H  0.01295684  0.03307333  0.16614861     0.06400
C73         C  0.07803855  0.02427606  0.31553293    -0.07300
Cl74       Cl  0.03623717  0.46080323  0.25035207    -0.50300
C75         C  0.11167060  0.37771197  0.30729631     0.42200
H76         H  0.42475090  0.03195129  0.26775057     0.06400
N77         N  0.12199225  0.02418093  0.28482910    -0.47000
C78         C  0.14162955  0.31651306  0.14202550     0.79800
N79         N  0.12318733  0.34229165  0.15500103    -0.78500
C80         C  0.13226907  0.35133896  0.18006030     0.82300
N81         N  0.15942522  0.33430498  0.19229852    -0.78400
C82         C  0.17735919  0.30801891  0.17983669     0.82400
N83         N  0.16845882  0.29908180  0.15472251    -0.80200
C84         C  0.40047655  0.07293963  0.36014776     0.79800
N85         N  0.42700555  0.05590495  0.34682161    -0.78500
C86         C  0.43430394  0.06424004  0.32128788     0.82300
N87         N  0.41476116  0.08943974  0.30882573    -0.78400
C88         C  0.38923145  0.10760205  0.32201936     0.82400
N89         N  0.38160312  0.09875195  0.34741113    -0.80200
C90         C  0.13338099  0.11275005  0.35381432     0.79800
N91         N  0.11667202  0.08489605  0.34208415    -0.78500
C92         C  0.12772803  0.07273663  0.31820724     0.82300
N93         N  0.15535570  0.08885444  0.30573771    -0.78400
C94         C  0.17166376  0.11727448  0.31701653     0.82400
N95         N  0.16064335  0.12912111  0.34099004    -0.80200
C96         C  0.17031431  0.07459029  0.13943752     0.79800
N97         N  0.14453396  0.05755874  0.15337878    -0.78500
C98         C  0.13863702  0.06546799  0.17908732     0.82300
N99         N  0.15894026  0.09045177  0.19117821    -0.78400
C100        C  0.18358330  0.10898758  0.17718176     0.82400
N101        N  0.18979272  0.10048564  0.15148115    -0.80200
C102        C  0.36702477  0.29098424  0.19442003     0.42000
N103        N  0.32522909  0.25432896  0.20361683     0.00900
C104        C  0.22237929  0.25633495  0.31812155    -0.06900
H105        H  0.35574368  0.23675545  0.33521793     0.06400
C106        C  0.35032519  0.12163062  0.28152516    -0.07300
Co107      Co  0.28633450  0.27550024  0.25266194     0.74200
N108        N  0.32405748  0.24708146  0.30035297    -0.26500
Co109      Co  0.28515489  0.20781743  0.29926678     0.74100
C110        C  0.36546185  0.13086396  0.30699539     0.42200
N111        N  0.32642516  0.14961748  0.21926917     0.00600
N112        N  0.32361307  0.16757485  0.29794453     0.00700
N113        N  0.22294759  0.29840914  0.28609410    -0.47300
H114        H  0.35666380  0.32363736  0.23204934     0.06400
N115        N  0.32472216  0.27263754  0.28239786     0.00900
N116        N  0.24603239  0.16874186  0.29634679     0.00700
C117        C  0.20167148  0.13451595  0.30371242     0.42300
N118        N  0.32617246  0.17552561  0.20161847    -0.25900
C119        C  0.22214446  0.30052861  0.21866349    -0.06800
N120        N  0.34907422  0.26244999  0.18525021    -0.47000
N121        N  0.21948322  0.16303819  0.31305922    -0.47700
C122        C  0.20601159  0.28961800  0.19380938     0.42100
N123        N  0.24697210  0.27338281  0.28157069     0.00900
N124        N  0.24890746  0.17376398  0.20008349    -0.25900
N125        N  0.32551185  0.27679692  0.22363675    -0.26400
N126        N  0.24840173  0.14868709  0.21836132     0.00600
H127        H  0.21934573  0.18068375  0.16368546     0.06500
H128        H  0.21368527  0.10034029  0.26707355     0.06500
N129        N  0.24711499  0.24832862  0.29989089    -0.26500
N130        N  0.32439113  0.14540328  0.27774859    -0.26100
N131        N  0.24804686  0.25355516  0.20321229     0.00900
C132        C  0.36754568  0.28510063  0.30858886     0.42300
C133        C  0.35373295  0.17132476  0.18520334    -0.07400
N134        N  0.24680607  0.14543910  0.27681438    -0.26100
H135        H  0.35601448  0.09909364  0.26893015     0.06500
N136        N  0.35041293  0.29602849  0.28661504    -0.47300
H137        H  0.36012141  0.18824750  0.16855348     0.06500
C138        C  0.20759952  0.13314382  0.19119676     0.42200
C139        C  0.35141343  0.30069607  0.21975487    -0.06800
Co140      Co  0.28696178  0.21430039  0.20155521     0.73800
N141        N  0.35324228  0.12713455  0.21576098    -0.47000
C142        C  0.20606962  0.28920483  0.30857584     0.42400
N143        N  0.22336683  0.26043692  0.18516867    -0.47000
Co144      Co  0.28654476  0.14660172  0.24801569     0.73900
C145        C  0.21962255  0.12270053  0.27977375    -0.07400
C146        C  0.35016087  0.25280106  0.31793141    -0.06900
N147        N  0.24808461  0.27678458  0.22280471    -0.26400
N148        N  0.34729369  0.15919218  0.31645414    -0.47200
H149        H  0.21744118  0.24175014  0.33620294     0.06400
C150        C  0.22424226  0.16591817  0.18169768    -0.07300
Cl151      Cl  0.28617810  0.21108420  0.25038522    -0.50300
C152        C  0.37157914  0.13942877  0.19469012     0.42200
H153        H  0.21636247  0.32335428  0.23094450     0.06400
N154        N  0.22420567  0.12391129  0.21376796    -0.47000
N155        N  0.28487906  0.45949633  0.53878050    -0.37000
N156        N  0.24488505  0.42236927  0.49790835    -0.57600
N157        N  0.28381745  0.46303982  0.45785553    -0.37000
N158        N  0.32738362  0.49621773  0.49912334    -0.57600
C159        C  0.26845304  0.43409680  0.55324493     0.26600
C160        C  0.31117195  0.47312420  0.55394250     0.26600
C161        C  0.26506098  0.44060519  0.44217685     0.26600
C162        C  0.30908632  0.47881892  0.44273350     0.26600
C163        C  0.22640573  0.41111721  0.51922802     0.35200
C164        C  0.22556325  0.41309218  0.47651225     0.35200
C165        C  0.34210709  0.01157202  0.51900963     0.35200
C166        C  0.34197933  0.01158872  0.47612458     0.35200
C167        C  0.28441257  0.43165774  0.57793208    -0.22300
C168        C  0.31136265  0.45629185  0.57837166    -0.22300
C169        C  0.27813861  0.44267068  0.41658551    -0.22300
C170        C  0.30572448  0.46677255  0.41690524    -0.22300
C171        C  0.19540525  0.39417599  0.51140504    -0.23400
C172        C  0.19490508  0.39533163  0.48427794    -0.23400
C173        C  0.36181513  0.04087000  0.51125897    -0.23400
C174        C  0.36198092  0.04076620  0.48408588    -0.23400
C175        C  0.23780201  0.41488631  0.54562278    -0.18700
C176        C  0.33706473  0.00057176  0.54544858    -0.18700
C177        C  0.33621358  0.00122735  0.44950477    -0.18700
C178        C  0.23579677  0.41904777  0.45000290    -0.18700
H179        H  0.27708410  0.41426127  0.59411194     0.14200
H180        H  0.32887648  0.46151504  0.59492846     0.14200
H181        H  0.26869837  0.42841502  0.39937032     0.14200
H182        H  0.32137266  0.47457416  0.39990666     0.14200
H183        H  0.17536228  0.38213642  0.52391664     0.12500
H184        H  0.17429218  0.38441559  0.47170793     0.12500
H185        H  0.37517864  0.05992921  0.52385384     0.12500
H186        H  0.37549795  0.05995474  0.47168747     0.12500
H187        H  0.27686074  0.46889480  0.52046626     0.25700
H188        H  0.27872795  0.46830833  0.47752454     0.25700
N189        N  0.03469126  0.21791919  0.03791557    -0.37000
N190        N  0.07445564  0.25720041  0.99836236    -0.57600
N191        N  0.03910177  0.21563869  0.95774268    -0.37000
N192        N  0.49461411  0.18341235  0.99870915    -0.57600
C193        C  0.04914165  0.24419515  0.05257148     0.26600
C194        C  0.00761578  0.20410461  0.05214131     0.26600
C195        C  0.05466802  0.24131579  0.94285748     0.26600
C196        C  0.01411510  0.19961561  0.94258470     0.26600
C197        C  0.09251468  0.26763644  0.02006598     0.35200
C198        C  0.09400553  0.26759128  0.97738870     0.35200
C199        C  0.48347228  0.16549828  0.02034999     0.35200
C200        C  0.48630191  0.16303667  0.97764521     0.35200
C201        C  0.03103557  0.24726049  0.07633836    -0.22300
C202        C  0.00468099  0.22198235  0.07603805    -0.22300
C203        C  0.03962087  0.24122231  0.91779400    -0.22300
C204        C  0.01394754  0.21511078  0.91767313    -0.22300
C205        C  0.12345623  0.28520900  0.01295823    -0.23400
C206        C  0.12425049  0.28550363  0.98582988    -0.23400
C207        C  0.46735521  0.13386900  0.01305012    -0.23400
C208        C  0.46922631  0.13224514  0.98591069    -0.23400
C209        C  0.08029987  0.26311431  0.04612503    -0.18700
C210        C  0.48635258  0.17833097  0.04645426    -0.18700
C211        C  0.49246455  0.17279088  0.95104677    -0.18700
C212        C  0.08344942  0.26335750  0.95081364    -0.18700
H213        H  0.03675461  0.26532037  0.09244833     0.14200
H214        H  0.98612498  0.21665180  0.09193000     0.14200
H215        H  0.04659678  0.25791604  0.90114551     0.14200
H216        H  0.99739778  0.20797831  0.90096895     0.14200
H217        H  0.14303675  0.29712028  0.02592635     0.12500
H218        H  0.14463539  0.29780158  0.97379248     0.12500
H219        H  0.45544796  0.11415024  0.02591112     0.12500
H220        H  0.45911823  0.11090053  0.97367961     0.12500
H221        H  0.04488789  0.20782650  0.02039709     0.25700
H222        H  0.04658012  0.20785600  0.97661267     0.25700
N223        N  0.03294076  0.21521834  0.46141004    -0.37000
N224        N  0.99593444  0.25324234  0.50305102    -0.57600
N225        N  0.04274767  0.21850892  0.54139362    -0.37000
N226        N  0.07625237  0.17718659  0.49928118    -0.57600
C227        C  0.00451590  0.22860285  0.44849766     0.26600
C228        C  0.04586001  0.18851648  0.44642754     0.26600
C229        C  0.01876605  0.23433023  0.55761098     0.26600
C230        C  0.06054041  0.19376205  0.55578545     0.26600
C231        C  0.48709827  0.27140485  0.48113070     0.35200
C232        C  0.49049512  0.27322076  0.52378608     0.35200
C233        C  0.09258732  0.16651545  0.47684134     0.35200
C234        C  0.09746467  0.16736895  0.51957143     0.35200
C235        C  0.99907391  0.21011887  0.42513508    -0.22300
C236        C  0.02523697  0.18466035  0.42384442    -0.22300
C237        C  0.02170359  0.21985691  0.58273256    -0.22300
C238        C  0.04809945  0.19448685  0.58163834    -0.22300
C239        C  0.47089428  0.30283352  0.48875773    -0.23400
C240        C  0.47293503  0.30395190  0.51587592    -0.23400
C241        C  0.12427815  0.14947070  0.48282335    -0.23400
C242        C  0.12721843  0.14968867  0.50996758    -0.23400
C243        C  0.48998251  0.25918059  0.45491524    -0.18700
C244        C  0.07790834  0.17021532  0.45127637    -0.18700
C245        C  0.08870802  0.17160874  0.54660684    -0.18700
C246        C  0.49728880  0.26345221  0.55029619    -0.18700
H247        H  0.97895707  0.21515976  0.41024920     0.14200
H248        H  0.02928079  0.16610411  0.40776812     0.14200
H249        H  0.00665087  0.22708871  0.60016466     0.14200
H250        H  0.05721002  0.17862774  0.59817996     0.14200
H251        H  0.45882465  0.32275245  0.47613175     0.12500
H252        H  0.46282763  0.32505704  0.52833802     0.12500
H253        H  0.14290037  0.13750293  0.46913611     0.12500
H254        H  0.14865155  0.13789356  0.52129403     0.12500
H255        H  0.04490386  0.22606550  0.47807007     0.25700
H256        H  0.04786498  0.22547043  0.52194527     0.25700
N257        N  0.28468689  0.46223421  0.96196680    -0.37000
N258        N  0.24992742  0.50444265  0.00242608    -0.57600
N259        N  0.28862510  0.46322893  0.04260142    -0.37000
N260        N  0.32778115  0.42537082  0.00191755    -0.57600
C261        C  0.26891755  0.48769151  0.94707419     0.26600
C262        C  0.30977818  0.44660254  0.94676749     0.26600
C263        C  0.27348536  0.48882345  0.05764102     0.26600
C264        C  0.31423554  0.44734495  0.05734248     0.26600
C265        C  0.22831530  0.01370236  0.98122668     0.35200
C266        C  0.22693114  0.01156738  0.02402736     0.35200
C267        C  0.33653113  0.40603704  0.98039407     0.35200
C268        C  0.33841734  0.40628197  0.02315938     0.35200
C269        C  0.28403383  0.48809932  0.92206662    -0.22300
C270        C  0.30984114  0.46220028  0.92187404    -0.22300
C271        C  0.28967037  0.48922464  0.08231799    -0.22300
C272        C  0.31535529  0.46303815  0.08213402    -0.22300
C273        C  0.19838143  0.03252876  0.98890299    -0.23400
C274        C  0.19742927  0.03112073  0.01604110    -0.23400
C275        C  0.35333833  0.37479260  0.98791535    -0.23400
C276        C  0.35448336  0.37490711  0.01507196    -0.23400
C277        C  0.23943985  0.00879716  0.95482330    -0.18700
C278        C  0.33078349  0.41691243  0.95402722    -0.18700
C279        C  0.33465756  0.41731569  0.04970978    -0.18700
C280        C  0.23656120  0.00477923  0.05063409    -0.18700
H281        H  0.27689599  0.50500860  0.90554673     0.14200
H282        H  0.32640949  0.45528143  0.90514125     0.14200
H283        H  0.28313491  0.50615315  0.09892431     0.14200
H284        H  0.33245949  0.45591357  0.09854830     0.14200
H285        H  0.17920835  0.04578093  0.97628978     0.12500
H286        H  0.17724097  0.04309772  0.02843729     0.12500
H287        H  0.36354609  0.35404674  0.97516817     0.12500
H288        H  0.36572597  0.35421301  0.02742545     0.12500
H289        H  0.27705500  0.45418625  0.98073119     0.25700
H290        H  0.28001695  0.45528130  0.02407470     0.25700
C291        C  0.39185222  0.36087804  0.85861653     0.79800
N292        N  0.37594996  0.33380005  0.84528121    -0.78500
C293        C  0.38636679  0.32538950  0.82038849     0.82300
N294        N  0.41285539  0.34411737  0.80866924    -0.78400
C295        C  0.42843500  0.37163244  0.82157226     0.82400
N296        N  0.41771255  0.38011537  0.84639528    -0.80200
C297        C  0.42787559  0.10455683  0.86056293     0.79800
N298        N  0.44532761  0.07808042  0.84752808    -0.78500
C299        C  0.43683690  0.07013280  0.82215075     0.82300
N300        N  0.41146624  0.08915990  0.80952979    -0.78400
C301        C  0.39308147  0.11475249  0.82238793     0.82400
N302        N  0.40169264  0.12294181  0.84777468    -0.80200
C303        C  0.18510328  0.06870796  0.85782853     0.79800
N304        N  0.20362337  0.09538285  0.84589837    -0.78500
C305        C  0.19504331  0.10611478  0.82100718     0.82300
N306        N  0.16817616  0.08984867  0.80782493    -0.78400
C307        C  0.15015799  0.06267155  0.81924240     0.82400
N308        N  0.15866332  0.05216715  0.84415000    -0.80200
C309        C  0.15255316  0.33010393  0.86182888     0.79800
N310        N  0.13414342  0.35589244  0.84869492    -0.78500
C311        C  0.14052139  0.36265536  0.82276147     0.82300
N312        N  0.16535799  0.34321663  0.80963732    -0.78400
C313        C  0.18514621  0.31859657  0.82276187     0.82400
N314        N  0.17814854  0.31169546  0.84859115    -0.80200
C315        C  0.15427003  0.10341142  0.63670606     0.79800
N316        N  0.13583613  0.07685173  0.64907530    -0.78500
C317        C  0.14139470  0.06956412  0.67509907     0.82300
N318        N  0.16516780  0.08924730  0.68897727    -0.78400
C319        C  0.18471123  0.11475522  0.67679724     0.82400
N320        N  0.17872218  0.12217475  0.65088721    -0.80200
C321        C  0.38733962  0.06531470  0.64237524     0.79800
N322        N  0.41433947  0.04842321  0.65517752    -0.78500
C323        C  0.42596323  0.05984385  0.67913300     0.82300
N324        N  0.41025303  0.08841543  0.69070851    -0.78400
C325        C  0.38296924  0.10533412  0.67827062     0.82400
N326        N  0.37192363  0.09389209  0.65414164    -0.80200
C327        C  0.36836915  0.29690568  0.80595184     0.42000
N328        N  0.33176788  0.25540504  0.79636742     0.00900
C329        C  0.33161310  0.15203475  0.68224946    -0.06900
H330        H  0.31981456  0.28377766  0.66326673     0.06400
C331        C  0.20051392  0.28161195  0.71912668    -0.07300
Co332      Co  0.35382844  0.21614863  0.74739780     0.74200
N333        N  0.32659485  0.25448637  0.69976791    -0.26500
Co334      Co  0.28618260  0.21648531  0.70076670     0.74100
C335        C  0.21148779  0.29847049  0.69456987     0.42200
N336        N  0.22667797  0.25534889  0.78111728     0.00600
N337        N  0.24693134  0.25547414  0.70294433     0.00700
N338        N  0.37526242  0.15190387  0.71323515    -0.47300
H339        H  0.40251995  0.28590807  0.76906945     0.06400
N340        N  0.35166083  0.25490330  0.71808111     0.00900
N341        N  0.24588119  0.17818387  0.70246701     0.00700
C342        C  0.20805445  0.13759365  0.69267921     0.42300
N343        N  0.25167021  0.25517516  0.79947977    -0.25900
C344        C  0.37892822  0.15238390  0.78117447    -0.06800
N345        N  0.33883250  0.27995984  0.81436252    -0.47000
N346        N  0.23707946  0.15510981  0.68371759    -0.47300
C347        C  0.36969664  0.13773283  0.80687020     0.42100
N348        N  0.35139322  0.17717723  0.71785605     0.00900
N349        N  0.25287963  0.17817929  0.79955679    -0.25900
N350        N  0.35522817  0.25495128  0.77690027    -0.26400
N351        N  0.22733579  0.17751706  0.78160211     0.00600
H352        H  0.26301633  0.14696818  0.83467498     0.06500
H353        H  0.17577281  0.14761579  0.73051550     0.06500
N354        N  0.32565905  0.17772051  0.70003013    -0.26500
N355        N  0.22381481  0.25513783  0.72262060    -0.26100
N356        N  0.33231157  0.17851708  0.79706032     0.00900
C357        C  0.36726867  0.29549162  0.69079720     0.42300
C358        C  0.24332478  0.27977106  0.81776437    -0.07400
N359        N  0.22341849  0.17775615  0.72254246    -0.26100
H360        H  0.17789576  0.28734991  0.73165413     0.06500
N361        N  0.37655350  0.27896172  0.71340951    -0.47300
H362        H  0.25769030  0.28457447  0.83596030     0.06500
C363        C  0.21453696  0.13513349  0.80823017     0.42200
C364        C  0.37936287  0.28057964  0.78115275    -0.06800
Co365      Co  0.29222474  0.21690722  0.79862567     0.73800
N366        N  0.20146261  0.27920009  0.78562816    -0.47000
C367        C  0.36439271  0.13502116  0.69109559     0.42400
N368        N  0.34093266  0.15547889  0.81591343    -0.47000
Co369      Co  0.22477199  0.21633686  0.75199831     0.73900
C370        C  0.19889052  0.15256970  0.71830327    -0.07400
C371        C  0.33447435  0.27902568  0.68134913    -0.06900
N372        N  0.35471310  0.17778918  0.77694076    -0.26400
N373        N  0.24027947  0.28087799  0.68539610    -0.47200
H374        H  0.31553540  0.14672034  0.66495599     0.06400
C375        C  0.24702300  0.15234737  0.81732492    -0.07300
Cl376      Cl  0.28926850  0.21644461  0.74969716    -0.50300
C377        C  0.21030176  0.29605353  0.80817110     0.42200
H378        H  0.40194061  0.14711750  0.76892452     0.06400
N379        N  0.20370631  0.15207310  0.78608369    -0.47000
C380        C  0.42732843  0.33048802  0.63909904     0.79800
N381        N  0.40125162  0.31138496  0.65128668    -0.78500
C382        C  0.39150041  0.31898021  0.67650045     0.82300
N383        N  0.40882005  0.34477869  0.68999539    -0.78400
C384        C  0.43413024  0.36463939  0.67794527     0.82400
N385        N  0.44359342  0.35725227  0.65263943    -0.80200
C386        C  0.18043144  0.36019559  0.64224870     0.79800
N387        N  0.19997847  0.33516237  0.65525202    -0.78500
C388        C  0.19202932  0.32647935  0.68064174     0.82300
N389        N  0.16490679  0.34317807  0.69317195    -0.78400
C390        C  0.14597974  0.36877476  0.68064886     0.82400
N391        N  0.15373821  0.37724227  0.65525689    -0.80200
C392        C  0.45588639  0.38853079  0.69395583     0.42000
N393        N  0.49840504  0.42440730  0.70296853     0.00900
C394        C  0.10091669  0.42010442  0.81771255    -0.06900
H395        H  0.46894434  0.44016436  0.83519594     0.06400
C396        C  0.47467488  0.05607520  0.78110462    -0.07300
Co397      Co  0.03606573  0.40127087  0.75260624     0.74200
N398        N  0.49958643  0.43057524  0.79972365    -0.26500
Co399      Co  0.03772575  0.46873803  0.79886897     0.74100
C400        C  0.45950291  0.04668776  0.80659220     0.42200
N401        N  0.49844841  0.02815254  0.71821043     0.00600
N402        N  0.50033721  0.00927911  0.79716582     0.00700
N403        N  0.09967471  0.37780289  0.78597407    -0.47300
H404        H  0.46565789  0.35586404  0.73168609     0.06400
N405        N  0.49857787  0.40515672  0.78174761     0.00900
N406        N  0.07861650  0.00954948  0.79588859     0.00700
C407        C  0.12160492  0.04478082  0.80473163     0.42300
N408        N  0.49817299  0.00222335  0.70061893    -0.25900
C409        C  0.10060858  0.37591819  0.71921380    -0.06800
N410        N  0.47445140  0.41660563  0.68459716    -0.47000
N411        N  0.10387976  0.01594907  0.81351825    -0.47300
C412        C  0.11725275  0.38695254  0.69457334     0.42100
N413        N  0.07549639  0.40279515  0.78158447     0.00900
N414        N  0.07689000  0.00410298  0.69905847    -0.25900
N415        N  0.49765381  0.40200383  0.72307706    -0.26400
N416        N  0.07763176  0.02923988  0.71727172     0.00600
H417        H  0.10554800  0.99744400  0.66225951     0.06500
H418        H  0.11089973  0.07878600  0.76764550     0.06500
N419        N  0.07570745  0.42798010  0.79974496    -0.26500
N420        N  0.50001528  0.03174609  0.77706584    -0.26100
N421        N  0.07493108  0.42288402  0.70338660     0.00900
C422        C  0.45662544  0.39199270  0.80855629     0.42300
C423        C  0.47170909  0.00791535  0.68339337    -0.07400
N424        N  0.07841615  0.03276182  0.77623419    -0.26100
H425        H  0.46951500  0.07902075  0.76874255     0.06500
N426        N  0.47328958  0.38144790  0.78632788    -0.47300
H427        H  0.46546790  0.99150871  0.66645413     0.06500
C428        C  0.11773773  0.04512294  0.68946971     0.42200
C429        C  0.47125186  0.37870958  0.71933798    -0.06800
Co430      Co  0.03657763  0.46258763  0.70117254     0.73800
N431        N  0.47303049  0.05202322  0.71390917    -0.47000
C432        C  0.11718213  0.38715299  0.80817876     0.42400
N433        N  0.10000569  0.41608463  0.68570323    -0.47000
Co434      Co  0.03913129  0.03148187  0.74689736     0.73900
C435        C  0.10496456  0.05607079  0.78003441    -0.07400
C436        C  0.47395610  0.42449872  0.81765731    -0.06900
N437        N  0.07450754  0.39962158  0.72299023    -0.26400
N438        N  0.47704899  0.01788489  0.81578844    -0.47200
H439        H  0.10635161  0.43491465  0.83558978     0.06400
C440        C  0.10110311  0.01212155  0.68034333    -0.07300
Cl441      Cl  0.03700714  0.46575034  0.75001525    -0.50300
C442        C  0.45511439  0.04078009  0.69230119     0.42200
H443        H  0.10628632  0.35316667  0.73164383     0.06400
N444        N  0.10155006  0.05419962  0.71226233    -0.47000
C445        C  0.21921339  0.02577237  0.93282352    -0.06500
C446        C  0.22348397  0.06224086  0.92785228    -0.17700
C447        C  0.21101437  0.07765010  0.90420355     0.10700
C448        C  0.19499587  0.05572752  0.88470818    -0.06500
C449        C  0.18880893  0.01971428  0.89071044    -0.17700
C450        C  0.20016500  0.00477155  0.91455287     0.10700
S451        S  0.21506740  0.12520526  0.89967313    -0.32700
S452        S  0.18789291  0.45820983  0.92255786    -0.32700
H453        H  0.18837683  0.46118838  0.95027750     0.28700
H454        H  0.22874866  0.13299472  0.92491307     0.28700
H455        H  0.23771288  0.07828659  0.94214208     0.19300
H456        H  0.17585922  0.00260470  0.87640898     0.19300
C457        C  0.34782595  0.39660227  0.93235979    -0.06500
C458        C  0.38403699  0.40222046  0.92724974    -0.17700
C459        C  0.39987484  0.38945266  0.90399275     0.10700
C460        C  0.37865004  0.37109131  0.88522866    -0.06500
C461        C  0.34291748  0.36356403  0.89145530    -0.17700
C462        C  0.32743169  0.37587790  0.91478012     0.10700
S463        S  0.44704217  0.39658423  0.89898673    -0.32700
S464        S  0.28096741  0.36607042  0.92029909    -0.32700
H465        H  0.28255187  0.36731024  0.94805908     0.28700
H466        H  0.45372144  0.41486614  0.92273103     0.28700
H467        H  0.39945996  0.41786193  0.94110109     0.19300
H468        H  0.32635074  0.34907283  0.87761717     0.19300
C469        C  0.10851550  0.14992182  0.56647427    -0.06500
C470        C  0.14209978  0.16134017  0.57508133    -0.17700
C471        C  0.15980807  0.14412756  0.59593862     0.10700
C472        C  0.14252022  0.11618760  0.60994954    -0.06500
C473        C  0.11003052  0.10328990  0.59976564    -0.17700
C474        C  0.09334126  0.11930667  0.57804367     0.10700
S475        S  0.20447032  0.15890160  0.60302571    -0.32700
S476        S  0.05143032  0.10083708  0.56720094    -0.32700
H477        H  0.05350379  0.11261204  0.54087233     0.28700
H478        H  0.21741783  0.12442938  0.60824050     0.28700
H479        H  0.15452016  0.18399154  0.56553328     0.19300
H480        H  0.09653039  0.08133292  0.60935145     0.19300
C481        C  0.44294682  0.31769803  0.61374564    -0.06500
C482        C  0.47947799  0.32373821  0.60917251    -0.17700
C483        C  0.49739972  0.30756516  0.58813396     0.10700
C484        C  0.47888070  0.28394745  0.57143235    -0.06500
C485        C  0.44215384  0.27913486  0.57502671    -0.17700
C486        C  0.42388936  0.29622222  0.59556332     0.10700
S487        S  0.04357067  0.31361827  0.58607934    -0.32700
S488        S  0.37632281  0.28996147  0.59699498    -0.32700
H489        H  0.36904943  0.32467764  0.60590454     0.28700
H490        H  0.04424407  0.31123563  0.55833778     0.28700
H491        H  0.49469717  0.34029808  0.62256400     0.19300
H492        H  0.42763654  0.26181500  0.56171596     0.19300
C493        C  0.10310929  0.28382563  0.93031661    -0.06500
C494        C  0.13685257  0.27192640  0.92245365    -0.17700
C495        C  0.15588184  0.28935159  0.90246737     0.10700
C496        C  0.13955782  0.31758722  0.88821323    -0.06500
C497        C  0.10677521  0.33089217  0.89759817    -0.17700
C498        C  0.08898255  0.31496345  0.91881566     0.10700
S499        S  0.20109649  0.27491592  0.89712181    -0.32700
S500        S  0.04762275  0.33473483  0.92953158    -0.32700
H501        H  0.04994840  0.32368470  0.95603275     0.28700
H502        H  0.21412051  0.30952483  0.89260717     0.28700
H503        H  0.14866875  0.24915977  0.93230215     0.19300
H504        H  0.09412320  0.35330371  0.88792432     0.19300
C505        C  0.44262315  0.11802299  0.88595264    -0.06500
C506        C  0.47966803  0.11571117  0.88988592    -0.17700
C507        C  0.49618374  0.13169397  0.91157260     0.10700
C508        C  0.47555513  0.15132857  0.92972401    -0.06500
C509        C  0.43839052  0.15233160  0.92668022    -0.17700
C510        C  0.42162803  0.13557252  0.90516369     0.10700
S511        S  0.54386488  0.12697175  0.91454615    -0.32700
S512        S  0.37359640  0.13615177  0.90286852    -0.32700
H513        H  0.36719030  0.15439060  0.92667076     0.28700
H514        H  0.54484779  0.12846478  0.94231958     0.28700
H515        H  0.49625807  0.10222261  0.87551997     0.19300
H516        H  0.42266784  0.16693400  0.94095832     0.19300
C517        C  0.35349270  0.02126107  0.56731501    -0.06500
C518        C  0.33232322  0.04688633  0.57981686    -0.17700
C519        C  0.34227648  0.06191990  0.60402818     0.10700
C520        C  0.37509677  0.05195651  0.61600691    -0.06500
C521        C  0.39698121  0.02740244  0.60252264    -0.17700
C522        C  0.38654001  0.01190281  0.57857831     0.10700
S523        S  0.31014727  0.09122235  0.61903775    -0.32700
S524        S  0.41769763  0.49307892  0.55833631    -0.32700
H525        H  0.39372838  0.47051894  0.54522357     0.28700
H526        H  0.30876298  0.07159748  0.64274425     0.28700
H527        H  0.30659912  0.05356143  0.57140148     0.19300
H528        H  0.42230383  0.01941754  0.61091959     0.19300
C529        C  0.21633025  0.39887428  0.56710075    -0.06500
C530        C  0.22111342  0.36285101  0.57330945    -0.17700
C531        C  0.20734099  0.34856176  0.59675005     0.10700
C532        C  0.18970790  0.37120053  0.61494036    -0.06500
C533        C  0.18272459  0.40659473  0.60751811    -0.17700
C534        C  0.19546215  0.42047104  0.58376360     0.10700
S535        S  0.21284991  0.30141717  0.60195312    -0.32700
S536        S  0.18642323  0.46667703  0.57667188    -0.32700
H537        H  0.18772961  0.46347437  0.54900083     0.28700
H538        H  0.17953298  0.29685243  0.61424029     0.28700
H539        H  0.23657359  0.34608801  0.56019808     0.19300
H540        H  0.16855958  0.42422713  0.62079463     0.19300
C541        C  0.18254735  0.05880806  0.11415918    -0.06500
C542        C  0.17935198  0.02169233  0.11120292    -0.17700
C543        C  0.19535293  0.00374693  0.09021663     0.10700
C544        C  0.21603975  0.02300531  0.07183092    -0.06500
C545        C  0.21810789  0.06022175  0.07401027    -0.17700
C546        C  0.20096310  0.07836419  0.09457479     0.10700
S547        S  0.19967474  0.45751660  0.08783671    -0.32700
S548        S  0.20298138  0.12628655  0.09434296    -0.32700
H549        H  0.16921860  0.13118444  0.10585287     0.28700
H550        H  0.20296177  0.45529611  0.06020319     0.28700
H551        H  0.16528554  0.00607496  0.12587942     0.19300
H552        H  0.23326570  0.07520773  0.05956441     0.19300
C553        C  0.12158730  0.12603389  0.37997372    -0.06500
C554        C  0.12359461  0.16278451  0.38473445    -0.17700
C555        C  0.11137862  0.17751874  0.40838199     0.10700
C556        C  0.09655910  0.15514420  0.42797750    -0.06500
C557        C  0.09512398  0.11838239  0.42361047    -0.17700
C558        C  0.10774529  0.10352738  0.40002505     0.10700
S559        S  0.11387934  0.22529886  0.41175335    -0.32700
S560        S  0.10584415  0.05576073  0.39716162    -0.32700
H561        H  0.13940483  0.05266266  0.38500528     0.28700
H562        H  0.11572289  0.22590463  0.43950865     0.28700
H563        H  0.13399698  0.18042471  0.36962980     0.19300
H564        H  0.08346113  0.10123282  0.43851590     0.19300
C565        C  0.35590625  0.02088100  0.42855312    -0.06500
C566        C  0.34417390  0.05502740  0.42161099    -0.17700
C567        C  0.36038315  0.07427052  0.40119926     0.10700
C568        C  0.38780760  0.05821640  0.38597703    -0.06500
C569        C  0.40053122  0.02452744  0.39398440    -0.17700
C570        C  0.38538525  0.00609365  0.41523390     0.10700
S571        S  0.34498415  0.11923684  0.39633217    -0.32700
S572        S  0.40102590  0.46444788  0.42624715    -0.32700
H573        H  0.39136349  0.46570937  0.45307057     0.28700
H574        H  0.37931291  0.13300396  0.39181400     0.28700
H575        H  0.32225984  0.06690475  0.43240955     0.19300
H576        H  0.42184210  0.01167065  0.38318631     0.19300
C577        C  0.10129717  0.27785838  0.06825901    -0.06500
C578        C  0.09903042  0.31427457  0.07378818    -0.17700
C579        C  0.11412649  0.32830338  0.09681152     0.10700
C580        C  0.13063053  0.30510222  0.11525508    -0.06500
C581        C  0.13451071  0.26897592  0.10876189    -0.17700
C582        C  0.12041354  0.25524532  0.08541682     0.10700
S583        S  0.11187704  0.37587560  0.10107415    -0.32700
S584        S  0.12609593  0.20826890  0.07928504    -0.32700
H585        H  0.12539934  0.21063667  0.05154601     0.28700
H586        H  0.14546449  0.37866945  0.11326596     0.28700
H587        H  0.08486095  0.33169978  0.06030465     0.19300
H588        H  0.14749546  0.25087064  0.12239861     0.19300
C589        C  0.47054577  0.15783536  0.06856147    -0.06500
C590        C  0.49307183  0.13418086  0.08189824    -0.17700
C591        C  0.48421290  0.12058658  0.10674387     0.10700
C592        C  0.45101389  0.12960190  0.11838985    -0.06500
C593        C  0.42775671  0.15213448  0.10419137    -0.17700
C594        C  0.43716902  0.16641639  0.07958657     0.10700
S595        S  0.02515998  0.10953228  0.13078923    -0.32700
S596        S  0.40646054  0.19718328  0.06428399    -0.32700
H597        H  0.42031230  0.19549734  0.03854921     0.28700
H598        H  0.51661530  0.11489537  0.14655646     0.28700
H599        H  0.02611209  0.13458643  0.07849983     0.19300
H600        H  0.40212469  0.15929370  0.11245206     0.19300
C601        C  0.18334775  0.36300302  0.38669936    -0.06500
C602        C  0.17335626  0.39820053  0.39297344    -0.17700
C603        C  0.18889398  0.41657178  0.41404180     0.10700
C604        C  0.21562565  0.39986710  0.42914200    -0.06500
C605        C  0.22407965  0.36416059  0.42423557    -0.17700
C606        C  0.20796924  0.34531514  0.40346744     0.10700
S607        S  0.17437270  0.46164816  0.42000153    -0.32700
S608        S  0.21859746  0.29869619  0.39936347    -0.32700
H609        H  0.24527308  0.29671365  0.41885247     0.28700
H610        H  0.18171804  0.46210637  0.44723925     0.28700
H611        H  0.15413418  0.41223710  0.38085385     0.19300
H612        H  0.24375681  0.35126287  0.43663618     0.19300
C613        C  0.35178045  0.39556359  0.07085384    -0.06500
C614        C  0.38893066  0.39657414  0.07389950    -0.17700
C615        C  0.40583443  0.37836842  0.09465629     0.10700
C616        C  0.38510218  0.35940451  0.11338285    -0.06500
C617        C  0.34808585  0.35704171  0.10933664    -0.17700
C618        C  0.33135983  0.37458832  0.08834223     0.10700
S619        S  0.45380273  0.38017400  0.09588363    -0.32700
S620        S  0.28360283  0.37034619  0.08565551    -0.32700
H621        H  0.28177629  0.37434782  0.05805169     0.28700
H622        H  0.45794383  0.34572468  0.10639410     0.28700
H623        H  0.40481135  0.41194367  0.06012114     0.19300
H624        H  0.33158754  0.34263954  0.12327865     0.19300
C625        C  0.44566737  0.30575667  0.38502459    -0.06500
C626        C  0.48181729  0.31077480  0.39117752    -0.17700
C627        C  0.49619866  0.29837842  0.41490734     0.10700
C628        C  0.47420229  0.28004442  0.43297183    -0.06500
C629        C  0.43770976  0.27688284  0.42777387    -0.17700
C630        C  0.42306764  0.29008776  0.40425489     0.10700
S631        S  0.04083907  0.30503294  0.42239445    -0.32700
S632        S  0.37549881  0.28633133  0.40028879    -0.32700
H633        H  0.37166080  0.31941378  0.38752325     0.28700
H634        H  0.03838821  0.30576591  0.45012558     0.28700
H635        H  0.49948640  0.32316452  0.37695458     0.19300
H636        H  0.42076246  0.26309593  0.44177548     0.19300
C637        C  0.43411879  0.81607432  0.35736776     0.79800
N638        N  0.45080031  0.84226796  0.34358316    -0.78500
C639        C  0.44117615  0.84962728  0.31830237     0.82300
N640        N  0.41476396  0.83067188  0.30667752    -0.78400
C641        C  0.39856121  0.80391065  0.32009010     0.82400
N642        N  0.40843005  0.79651602  0.34530154    -0.80200
C643        C  0.39938446  0.84516039  0.13873581     0.79800
N644        N  0.38298143  0.81894602  0.15280357    -0.78500
C645        C  0.39197797  0.81252775  0.17835525     0.82300
N646        N  0.41732308  0.83276821  0.19011459    -0.78400
C647        C  0.43505526  0.85793086  0.17607304     0.82400
N648        N  0.42548962  0.86458724  0.15063000    -0.80200
C649        C  0.17146264  0.84581549  0.36055094     0.79800
N650        N  0.19063122  0.82045160  0.34769055    -0.78500
C651        C  0.18360645  0.81239524  0.32205572     0.82300
N652        N  0.15805357  0.83068479  0.30881266    -0.78400
C653        C  0.13788916  0.85515336  0.32162021     0.82400
N654        N  0.14485340  0.86285342  0.34732160    -0.80200
C655        C  0.44110457  0.61523558  0.14511303     0.79800
N656        N  0.41395078  0.63167239  0.15792277    -0.78500
C657        C  0.40190820  0.61921684  0.18146936     0.82300
N658        N  0.41724711  0.59011323  0.19256340    -0.78400
C659        C  0.44463132  0.57365113  0.18003587     0.82400
N660        N  0.45613951  0.58602561  0.15630363    -0.80200
C661        C  0.45902334  0.87820343  0.30381339     0.42000
N662        N  0.99433911  0.92036610  0.29504027     0.00900
C663        C  0.99486840  0.52740652  0.18429814    -0.06900
H664        H  0.00649863  0.89256691  0.16207762     0.06400
C665        C  0.12621885  0.89474317  0.21788814    -0.07300
Co666      Co  0.47175028  0.96144487  0.24668038     0.74200
N667        N  0.99981202  0.92210251  0.19846972    -0.26500
Co668      Co  0.04039564  0.96020616  0.19993145     0.74100
C669        C  0.11529699  0.87834842  0.19317407     0.42200
N670        N  0.09898716  0.91979007  0.28010207     0.00600
N671        N  0.07974129  0.92112826  0.20185648     0.00700
N672        N  0.45101867  0.52572984  0.21398533    -0.47300
H673        H  0.42477402  0.88931804  0.26692981     0.06400
N674        N  0.47439181  0.92317514  0.21706956     0.00900
N675        N  0.08040290  0.99867428  0.20249514     0.00700
C676        C  0.11706892  0.54103148  0.19473588     0.42300
N677        N  0.07374289  0.92013838  0.29823485    -0.25900
C678        C  0.44728597  0.52508570  0.28131248    -0.06800
N679        N  0.98760689  0.89530616  0.31273451    -0.47000
N680        N  0.08819740  0.52360538  0.18545089    -0.47300
C681        C  0.45716792  0.53987885  0.30686486     0.42100
N682        N  0.47397502  0.00104228  0.21766939     0.00900
N683        N  0.07327030  0.99738684  0.29855857    -0.25900
N684        N  0.47067423  0.92190223  0.27571883    -0.26400
N685        N  0.09918676  0.99779965  0.28094568     0.00600
H686        H  0.06203014  0.53101199  0.33414157     0.06500
H687        H  0.14983274  0.52960236  0.23218162     0.06500
N688        N  0.00121305  0.99931518  0.19959080    -0.26500
N689        N  0.10282067  0.92108211  0.22158749    -0.26100
N690        N  0.99411930  0.99754367  0.29593295     0.00900
C691        C  0.45923519  0.88213202  0.18998699     0.42300
C692        C  0.08078878  0.89462866  0.31610040    -0.07400
N693        N  0.10296370  0.99857512  0.22250656    -0.26100
H694        H  0.14880850  0.88877438  0.23041945     0.06500
N695        N  0.44992244  0.89864709  0.21253993    -0.47300
H696        H  0.06573591  0.88949590  0.33392982     0.06500
C697        C  0.11077609  0.54208384  0.30779085     0.42200
C698        C  0.44751509  0.89517538  0.27931841    -0.06800
Co699      Co  0.03383852  0.95879709  0.29752050     0.73800
N700        N  0.12327938  0.89494921  0.28445298    -0.47000
C701        C  0.46232747  0.54304402  0.19216066     0.42400
N702        N  0.98543814  0.52218371  0.31664350    -0.47000
Co703      Co  0.10171589  0.95928198  0.25131671     0.73900
C704        C  0.12674956  0.52485233  0.21987580    -0.07400
C705        C  0.99182888  0.89746129  0.18011252    -0.06900
N706        N  0.47071207  0.99957956  0.27639152    -0.26400
N707        N  0.08646689  0.89605619  0.18411398    -0.47200
H708        H  0.01108315  0.53328749  0.16717105     0.06400
C709        C  0.07848297  0.52478872  0.31721654    -0.07300
Cl710      Cl  0.03712853  0.95949458  0.24875119    -0.50300
C711        C  0.11331262  0.87759694  0.30657375     0.42200
H712        H  0.42449362  0.53104664  0.26898088     0.06400
N713        N  0.12198374  0.52440039  0.28615231    -0.47000
C714        C  0.14469584  0.81595361  0.14098066     0.79800
N715        N  0.12589248  0.84142963  0.15400606    -0.78500
C716        C  0.13428122  0.85006825  0.17926979     0.82300
N717        N  0.16111873  0.83281726  0.19173007    -0.78400
C718        C  0.17935355  0.80671674  0.17926398     0.82400
N719        N  0.17116579  0.79826659  0.15390738    -0.80200
C720        C  0.40108649  0.57307892  0.36161745     0.79800
N721        N  0.42731395  0.55539355  0.34836234    -0.78500
C722        C  0.43432684  0.56304589  0.32262466     0.82300
N723        N  0.41482298  0.58801938  0.30995510    -0.78400
C724        C  0.38955578  0.60662346  0.32298999     0.82400
N725        N  0.38220784  0.59861152  0.34857104    -0.80200
C726        C  0.13609136  0.61242355  0.35515527     0.79800
N727        N  0.11870415  0.58478981  0.34366228    -0.78500
C728        C  0.12908693  0.57247548  0.31965333     0.82300
N729        N  0.15667506  0.58821124  0.30684449    -0.78400
C730        C  0.17358303  0.61641834  0.31791629     0.82400
N731        N  0.16324958  0.62838842  0.34198586    -0.80200
C732        C  0.17256561  0.57373868  0.13958606     0.79800
N733        N  0.14697866  0.55593660  0.15331414    -0.78500
C734        C  0.14045475  0.56388465  0.17901259     0.82300
N735        N  0.16013124  0.58924156  0.19123906    -0.78400
C736        C  0.18467299  0.60817090  0.17748712     0.82400
N737        N  0.19128946  0.59994535  0.15184612    -0.80200
C738        C  0.36980267  0.78889425  0.19452508     0.42000
N739        N  0.32730932  0.75267678  0.20344671     0.00900
C740        C  0.22345882  0.75536378  0.31741941    -0.06900
H741        H  0.35806813  0.73580852  0.33455495     0.06400
C742        C  0.35103690  0.62014652  0.28216531    -0.07300
Co743      Co  0.28809720  0.77434652  0.25225908     0.74200
N744        N  0.32579232  0.74612986  0.29997292    -0.26500
Co745      Co  0.28659317  0.70701494  0.29912122     0.74100
C746        C  0.36591168  0.62958818  0.30769799     0.42200
N747        N  0.32747896  0.64793622  0.21930507     0.00600
N748        N  0.32474807  0.66665160  0.29804327     0.00700
N749        N  0.22424929  0.79734527  0.28533688    -0.47300
H750        H  0.35906423  0.82179386  0.23195276     0.06400
N751        N  0.32644016  0.77152786  0.28190459     0.00900
N752        N  0.24738613  0.66798744  0.29644522     0.00700
C753        C  0.20331969  0.63357750  0.30427080     0.42300
N754        N  0.32730925  0.67377264  0.20159374    -0.25900
C755        C  0.22392882  0.79927489  0.21822325    -0.06800
N756        N  0.35156914  0.76050113  0.18528346    -0.47000
N757        N  0.22110630  0.66225750  0.31337158    -0.47700
C758        C  0.20779810  0.78822586  0.19340200     0.42100
N759        N  0.24857809  0.77250646  0.28109665     0.00900
N760        N  0.25017354  0.67261538  0.20021731    -0.25900
N761        N  0.32751164  0.77527528  0.22337607    -0.26400
N762        N  0.24948977  0.64765089  0.21858385     0.00600
H763        H  0.22046367  0.67965359  0.16391248     0.06500
H764        H  0.21509004  0.59909863  0.26775087     0.06500
N765        N  0.24860461  0.74753524  0.29947109    -0.26500
N766        N  0.32547894  0.64420393  0.27800312    -0.26100
N767        N  0.24990607  0.75229790  0.20287645     0.00900
C768        C  0.36982283  0.78387639  0.30759474     0.42300
C769        C  0.35449822  0.66918781  0.18493521    -0.07400
N770        N  0.24803240  0.64452145  0.27702150    -0.26100
H771        H  0.35654739  0.59730909  0.26982567     0.06500
N772        N  0.35239579  0.79472344  0.28575540    -0.47300
H773        H  0.36076215  0.68593447  0.16816181     0.06500
C774        C  0.20828638  0.63247994  0.19165702     0.42200
C775        C  0.35376402  0.79886343  0.21966081    -0.06800
Co776      Co  0.28857453  0.71285297  0.20144424     0.73800
N777        N  0.35395670  0.62510701  0.21560036    -0.47000
C778        C  0.20700579  0.78804446  0.30765716     0.42400
N779        N  0.22520541  0.75904679  0.18482463    -0.47000
Co780      Co  0.28768556  0.64538093  0.24818025     0.73900
C781        C  0.22099486  0.62166601  0.28025623    -0.07400
C782        C  0.35227691  0.75178572  0.31727122    -0.06900
N783        N  0.24992355  0.77560509  0.22240073    -0.26400
N784        N  0.34804881  0.65826759  0.31679284    -0.47200
H785        H  0.21822223  0.74070282  0.33542101     0.06400
C786        C  0.22529691  0.66495331  0.18196376    -0.07300
Cl787      Cl  0.28768599  0.70990208  0.25026232    -0.50300
C788        C  0.37205390  0.63714417  0.19431728     0.42200
H789        H  0.21809515  0.82212543  0.23046405     0.06400
N790        N  0.22496970  0.62314154  0.21416832    -0.47000
N791        N  0.28920785  0.95717031  0.53777239    -0.37000
N792        N  0.24957188  0.91775565  0.49751000    -0.57600
N793        N  0.28760361  0.95775691  0.45690199    -0.37000
N794        N  0.33040376  0.99355950  0.49756151    -0.57600
C795        C  0.27320270  0.93190908  0.55256709     0.26600
C796        C  0.31549292  0.97138254  0.55266495     0.26600
C797        C  0.26934453  0.93445170  0.44159522     0.26600
C798        C  0.31234695  0.97383059  0.44150401     0.26600
C799        C  0.23076100  0.90814304  0.51911049     0.35200
C800        C  0.22988681  0.90816905  0.47634603     0.35200
C801        C  0.33979827  0.51303384  0.52087029     0.35200
C802        C  0.34032191  0.51403020  0.47801101     0.35200
C803        C  0.28944088  0.93005706  0.57718346    -0.22300
C804        C  0.31607550  0.95504008  0.57726989    -0.22300
C805        C  0.28240306  0.93601335  0.41598388    -0.22300
C806        C  0.30933236  0.96087335  0.41588651    -0.22300
C807        C  0.19918878  0.89190976  0.51170800    -0.23400
C808        C  0.19867263  0.89181989  0.48455028    -0.23400
C809        C  0.36124240  0.54135061  0.51361688    -0.23400
C810        C  0.36190412  0.54177058  0.48646091    -0.23400
C811        C  0.24236814  0.91272619  0.54540146    -0.18700
C812        C  0.33344319  0.50202040  0.54715276    -0.18700
C813        C  0.33419668  0.50479519  0.45122870    -0.18700
C814        C  0.24004584  0.91312451  0.44970001    -0.18700
H815        H  0.28234805  0.91297189  0.59360308     0.14200
H816        H  0.33347582  0.96087278  0.59376829     0.14200
H817        H  0.27317661  0.92114097  0.39899406     0.14200
H818        H  0.32458769  0.96874951  0.39871241     0.14200
H819        H  0.17872199  0.88124676  0.52452571     0.12500
H820        H  0.17761007  0.88119364  0.47225712     0.12500
H821        H  0.37542521  0.55941720  0.52651928     0.12500
H822        H  0.37668646  0.56039286  0.47438306     0.12500
H823        H  0.28070826  0.96614536  0.51945073     0.25700
H824        H  0.28226539  0.96372726  0.47642703     0.25700
N825        N  0.03678335  0.71773875  0.03843429    -0.37000
N826        N  0.07271242  0.75885447  0.99786733    -0.57600
N827        N  0.03513079  0.71748327  0.95800673    -0.37000
N828        N  0.49662986  0.68066877  0.99866315    -0.57600
C829        C  0.05236930  0.74350566  0.05297643     0.26600
C830        C  0.01075671  0.70343954  0.05347153     0.26600
C831        C  0.04968329  0.74323864  0.94266575     0.26600
C832        C  0.01031547  0.70041756  0.94332989     0.26600
C833        C  0.09221296  0.76919498  0.01892560     0.35200
C834        C  0.09015439  0.77055545  0.97624991     0.35200
C835        C  0.48568317  0.66297192  0.02046163     0.35200
C836        C  0.48886871  0.65974934  0.97778741     0.35200
C837        C  0.03621231  0.74559557  0.07755863    -0.22300
C838        C  0.00978143  0.72040418  0.07783287    -0.22300
C839        C  0.03410689  0.74215674  0.91778076    -0.22300
C840        C  0.00916925  0.71536785  0.91826326    -0.22300
C841        C  0.12187719  0.78806968  0.01080252    -0.23400
C842        C  0.12039189  0.78931133  0.98373387    -0.23400
C843        C  0.47029576  0.63086837  0.01344936    -0.23400
C844        C  0.47236795  0.62877452  0.98632518    -0.23400
C845        C  0.08252278  0.76332187  0.04541826    -0.18700
C846        C  0.48793840  0.67649503  0.04641060    -0.18700
C847        C  0.49466723  0.66933310  0.95110556    -0.18700
C848        C  0.07820883  0.76604235  0.94996114    -0.18700
H849        H  0.04306561  0.76316019  0.09372843     0.14200
H850        H  0.99232989  0.71467422  0.09432799     0.14200
H851        H  0.04032608  0.75852870  0.90080084     0.14200
H852        H  0.99250548  0.70739773  0.90183315     0.14200
H853        H  0.14213023  0.80016887  0.02308856     0.12500
H854        H  0.13941074  0.80273358  0.97114830     0.12500
H855        H  0.45861194  0.61121652  0.02647942     0.12500
H856        H  0.46267925  0.60705551  0.97427219     0.12500
H857        H  0.04541636  0.70849879  0.02022361     0.25700
H858        H  0.04326333  0.71031412  0.97682723     0.25700
N859        N  0.03726215  0.71810152  0.46113845    -0.37000
N860        N  0.00029287  0.75687906  0.50221148    -0.57600
N861        N  0.04532976  0.72096703  0.54142472    -0.37000
N862        N  0.07886034  0.67905253  0.49990535    -0.57600
C863        C  0.00953765  0.73198211  0.44759992     0.26600
C864        C  0.05078245  0.69160397  0.44623346     0.26600
C865        C  0.02070305  0.73696791  0.55700058     0.26600
C866        C  0.06108718  0.69493704  0.55593436     0.26600
C867        C  0.48676107  0.77376797  0.48077292     0.35200
C868        C  0.49025962  0.77630513  0.52337049     0.35200
C869        C  0.09576950  0.66827188  0.47774474     0.35200
C870        C  0.09899847  0.66828778  0.52054607     0.35200
C871        C  0.00524167  0.71400940  0.42388074    -0.22300
C872        C  0.03134195  0.68846110  0.42301144    -0.22300
C873        C  0.02115958  0.72132446  0.58182053    -0.22300
C874        C  0.04666571  0.69502591  0.58120970    -0.22300
C875        C  0.47255883  0.80632859  0.48801973    -0.23400
C876        C  0.47463673  0.80788781  0.51514950    -0.23400
C877        C  0.12675327  0.65028118  0.48424798    -0.23400
C878        C  0.12863191  0.64995730  0.51142213    -0.23400
C879        C  0.48860589  0.76055915  0.45478816    -0.18700
C880        C  0.08215758  0.67246968  0.45190909    -0.18700
C881        C  0.08917041  0.67218828  0.54739765    -0.18700
C882        C  0.49608400  0.76630969  0.54990704    -0.18700
H883        H  0.98589149  0.71938284  0.40850634     0.14200
H884        H  0.03601631  0.67019079  0.40684857     0.14200
H885        H  0.00493090  0.72828078  0.59872542     0.14200
H886        H  0.05379954  0.67808790  0.59768756     0.14200
H887        H  0.46176218  0.82667520  0.47513677     0.12500
H888        H  0.46585496  0.82977539  0.52741950     0.12500
H889        H  0.14554958  0.63796342  0.47086519     0.12500
H890        H  0.14924167  0.63727289  0.52305046     0.12500
H891        H  0.04836103  0.72823871  0.47835233     0.25700
H892        H  0.05216558  0.72867607  0.52240073     0.25700
N893        N  0.28257105  0.96048935  0.96244187    -0.37000
N894        N  0.24591861  0.00130162  0.00269904    -0.57600
N895        N  0.28014688  0.95645179  0.04320361    -0.37000
N896        N  0.32106715  0.91991075  0.00266418    -0.57600
C897        C  0.26865739  0.98713759  0.94770531     0.26600
C898        C  0.30801237  0.94467725  0.94767764     0.26600
C899        C  0.26486361  0.98188786  0.05835135     0.26600
C900        C  0.30477805  0.93952569  0.05829042     0.26600
C901        C  0.22993092  0.51427432  0.98140690     0.35200
C902        C  0.23170462  0.51450992  0.02416234     0.35200
C903        C  0.33154739  0.90177784  0.98100322     0.35200
C904        C  0.33097210  0.90017048  0.02373597     0.35200
C905        C  0.28535373  0.98816724  0.92326642    -0.22300
C906        C  0.31018010  0.96138313  0.92324189    -0.22300
C907        C  0.27967158  0.98080411  0.08349923    -0.22300
C908        C  0.30476162  0.95408440  0.08346655    -0.22300
C909        C  0.19922163  0.53125803  0.98973720    -0.23400
C910        C  0.20026452  0.53131786  0.01687196    -0.23400
C911        C  0.34852383  0.87052420  0.98829226    -0.23400
C912        C  0.34824577  0.86954158  0.01544346    -0.23400
C913        C  0.23956959  0.50883587  0.95478347    -0.18700
C914        C  0.32760148  0.91400863  0.95480708    -0.18700
C915        C  0.32624653  0.91034060  0.05035465    -0.18700
C916        C  0.24349202  0.50969678  0.05048308    -0.18700
H917        H  0.27985396  0.00605778  0.90697317     0.14200
H918        H  0.32751575  0.95465314  0.90689943     0.14200
H919        H  0.27294527  0.99742765  0.10023211     0.14200
H920        H  0.32105305  0.94620152  0.10014298     0.14200
H921        H  0.17817215  0.54218940  0.97755276     0.12500
H922        H  0.18006228  0.54234598  0.02973294     0.12500
H923        H  0.36013143  0.85068804  0.97540682     0.12500
H924        H  0.35952962  0.84873616  0.02767613     0.12500
H925        H  0.27344730  0.95184592  0.98067337     0.25700
H926        H  0.27269638  0.94981108  0.02412340     0.25700
C927        C  0.38996887  0.86046694  0.85919378     0.79800
N928        N  0.37404020  0.83350936  0.84580263    -0.78500
C929        C  0.38437472  0.82510414  0.82094639     0.82300
N930        N  0.41098466  0.84376947  0.80925442    -0.78400
C931        C  0.42675011  0.87120597  0.82221775     0.82400
N932        N  0.41601717  0.87967196  0.84709423    -0.80200
C933        C  0.42770021  0.60317711  0.86075392     0.79800
N934        N  0.44530690  0.57727267  0.84724892    -0.78500
C935        C  0.43664643  0.56970214  0.82187365     0.82300
N936        N  0.41066591  0.58848447  0.80971209    -0.78400
C937        C  0.39193559  0.61344455  0.82307606     0.82400
N938        N  0.40090657  0.62134218  0.84847355    -0.80200
C939        C  0.18144006  0.56785922  0.85920099     0.79800
N940        N  0.20046782  0.59425302  0.84731522    -0.78500
C941        C  0.19256872  0.60470678  0.82223268     0.82300
N942        N  0.16594446  0.58834297  0.80882414    -0.78400
C943        C  0.14755391  0.56135701  0.82019718     0.82400
N944        N  0.15533593  0.55119397  0.84529697    -0.80200
C945        C  0.15054016  0.83120442  0.86160497     0.79800
N946        N  0.13446094  0.85839004  0.84841316    -0.78500
C947        C  0.14257628  0.86526186  0.82278165     0.82300
N948        N  0.16662717  0.84451957  0.81000849    -0.78400
C949        C  0.18408432  0.81838935  0.82324767     0.82400
N950        N  0.17544463  0.81138393  0.84877022    -0.80200
C951        C  0.15280993  0.60175229  0.63757329     0.79800
N952        N  0.13434661  0.57518564  0.64989645    -0.78500
C953        C  0.14005114  0.56773261  0.67588406     0.82300
N954        N  0.16390839  0.58727594  0.68977327    -0.78400
C955        C  0.18342605  0.61284027  0.67766594     0.82400
N956        N  0.17735377  0.62042375  0.65177730    -0.80200
C957        C  0.38717606  0.56609691  0.64315051     0.79800
N958        N  0.41503070  0.54964487  0.65521085    -0.78500
C959        C  0.42712316  0.56106241  0.67906263     0.82300
N960        N  0.41104551  0.58906982  0.69116638    -0.78400
C961        C  0.38303251  0.60553016  0.67929731     0.82400
N962        N  0.37156175  0.59418471  0.65531376    -0.80200
C963        C  0.36618323  0.79652018  0.80667548     0.42000
N964        N  0.32973943  0.75455573  0.79755047     0.00900
C965        C  0.33063516  0.65069496  0.68377146    -0.06900
H966        H  0.31829054  0.78153875  0.66403016     0.06400
C967        C  0.19852945  0.77969696  0.71934924    -0.07300
Co968      Co  0.35195683  0.71514084  0.74873272     0.74200
N969        N  0.32481440  0.75292596  0.70086416    -0.26500
Co970      Co  0.28458377  0.71466719  0.70201597     0.74100
C971        C  0.21003554  0.79625507  0.69474210     0.42200
N972        N  0.22454654  0.75377296  0.78212593     0.00600
N973        N  0.24522760  0.75337673  0.70383668     0.00700
N974        N  0.37434608  0.65127017  0.71472608    -0.47300
H975        H  0.40014120  0.78524051  0.76979178     0.06400
N976        N  0.34975920  0.75369347  0.71925662     0.00900
N977        N  0.24443950  0.67620027  0.70369509     0.00700
C978        C  0.20668709  0.63562253  0.69369055     0.42300
N979        N  0.24955841  0.75371805  0.80049693    -0.25900
C980        C  0.37710327  0.65140834  0.78229143    -0.06800
N981        N  0.33678678  0.77942898  0.81533593    -0.47000
N982        N  0.23579461  0.65313758  0.68489326    -0.47300
C983        C  0.36810624  0.63650875  0.80792295     0.42100
N984        N  0.34997648  0.67603885  0.71939744     0.00900
N985        N  0.25088105  0.67673086  0.80084754    -0.25900
N986        N  0.35310543  0.75409094  0.77802657    -0.26400
N987        N  0.22543728  0.67594636  0.78279443     0.00600
H988        H  0.26066904  0.64568547  0.83612819     0.06500
H989        H  0.17405440  0.64566740  0.73136719     0.06500
N990        N  0.32425229  0.67620323  0.70157216    -0.26500
N991        N  0.22181530  0.75326044  0.72333053    -0.26100
N992        N  0.33061002  0.67742902  0.79847561     0.00900
C993        C  0.36559938  0.79377842  0.69158834     0.42300
C994        C  0.24135790  0.77848168  0.81866083    -0.07400
N995        N  0.22178257  0.67581400  0.72365481    -0.26100
H996        H  0.17573762  0.78570366  0.73163355     0.06500
N997        N  0.37467703  0.77768128  0.71442719    -0.47300
H998        H  0.25585820  0.78352359  0.83676086     0.06500
C999        C  0.21240136  0.63362637  0.80948919     0.42200
C1000       C  0.37710170  0.77992584  0.78199977    -0.06800
Co1001     Co  0.29025633  0.71568317  0.79990083     0.73800
N1002       N  0.19941901  0.77776283  0.78653730    -0.47000
C1003       C  0.36373828  0.63430248  0.69257569     0.42400
N1004       N  0.33938104  0.65420232  0.81719772    -0.47000
Co1005     Co  0.22281683  0.71462447  0.75302140     0.73900
C1006       C  0.19730804  0.65059703  0.71929175    -0.07400
C1007       C  0.33281152  0.77715638  0.68222497    -0.06900
N1008       N  0.35291708  0.67687246  0.77830072    -0.26400
N1009       N  0.23898056  0.77856630  0.68607250    -0.47200
H1010       H  0.31479674  0.64531907  0.66636183     0.06400
C1011       C  0.24484033  0.65095877  0.81867745    -0.07300
Cl1012     Cl  0.28738990  0.71501728  0.75092894    -0.50300
C1013       C  0.20845123  0.79474091  0.80899975     0.42200
H1014       H  0.39995857  0.64617982  0.76987431     0.06400
N1015       N  0.20179908  0.65049408  0.78725366    -0.47000
C1016       C  0.42525456  0.82981329  0.63982257     0.79800
N1017       N  0.39935768  0.81030823  0.65193484    -0.78500
C1018       C  0.38980409  0.81744761  0.67731276     0.82300
N1019       N  0.40715868  0.84312801  0.69096187    -0.78400
C1020       C  0.43223974  0.86334316  0.67895584     0.82400
N1021       N  0.44140454  0.85645770  0.65354033    -0.80200
C1022       C  0.18327303  0.85991944  0.64238304     0.79800
N1023       N  0.20132511  0.83395041  0.65556276    -0.78500
C1024       C  0.19186924  0.82492210  0.68059687     0.82300
N1025       N  0.16483856  0.84228421  0.69264025    -0.78400
C1026       C  0.14739714  0.86882426  0.68002098     0.82400
N1027       N  0.15654430  0.87760138  0.65492748    -0.80200
C1028       C  0.45409098  0.88726798  0.69492598     0.42000
N1029       N  0.49689390  0.92305873  0.70359537     0.00900
C1030       C  0.10387045  0.92288562  0.81736999    -0.06900
H1031       H  0.46763832  0.93981414  0.83559969     0.06400
C1032       C  0.47514893  0.55661765  0.78076383    -0.07300
Co1033     Co  0.03915201  0.90254485  0.75258245     0.74200
N1034       N  0.49849554  0.92978202  0.80028152    -0.26500
Co1035     Co  0.03996124  0.97019822  0.79858503     0.74100
C1036       C  0.45963566  0.54674786  0.80607390     0.42200
N1037       N  0.49981188  0.52933764  0.71786900     0.00600
N1038       N  0.50124235  0.51000251  0.79677058     0.00700
N1039       N  0.10343718  0.88070452  0.78554407    -0.47300
H1040       H  0.46424521  0.85470980  0.73265696     0.06400
N1041       N  0.49747261  0.90422147  0.78241164     0.00900
N1042       N  0.07678949  0.50771754  0.79627528     0.00700
C1043       C  0.11942003  0.54322582  0.80543836     0.42300
N1044       N  0.49970063  0.50356482  0.70015096    -0.25900
C1045       C  0.10288323  0.87714901  0.71872832    -0.06800
N1046       N  0.47265604  0.91527800  0.68542026    -0.47000
N1047       N  0.10185473  0.51418064  0.81404337    -0.47300
C1048       C  0.11897475  0.88764803  0.69379770     0.42100
N1049       N  0.07879224  0.90517947  0.78122726     0.00900
N1050       N  0.07522593  0.50269642  0.69967966    -0.25900
N1051       N  0.49633349  0.90069976  0.72373246    -0.26400
N1052       N  0.07595561  0.52783641  0.71788292     0.00600
H1053       H  0.10414000  0.49577441  0.66303130     0.06500
H1054       H  0.10859071  0.57759231  0.76857571     0.06500
N1055       N  0.07851763  0.93026525  0.79944243    -0.26500
N1056       N  0.50089042  0.53262155  0.77676767    -0.26100
N1057       N  0.07730717  0.92416311  0.70293948     0.00900
C1058       C  0.45523604  0.89140469  0.80920285     0.42300
C1059       C  0.47338797  0.50943923  0.68281983    -0.07400
N1060       N  0.07653869  0.53115315  0.77676173    -0.26100
H1061       H  0.46975570  0.57953663  0.76843067     0.06500
N1062       N  0.47200686  0.88067847  0.78703758    -0.47300
H1063       H  0.46723010  0.49315257  0.66580071     0.06500
C1064       C  0.11639410  0.54337994  0.69026870     0.42200
C1065       C  0.46980275  0.87746036  0.72020434    -0.06800
Co1066     Co  0.03859262  0.96353879  0.70088552     0.73800
N1067       N  0.47443580  0.55324040  0.71358805    -0.47000
C1068       C  0.12076814  0.89034755  0.80772835     0.42400
N1069       N  0.10185180  0.91687523  0.68492072    -0.47000
Co1070     Co  0.03733573  0.53029391  0.74739851     0.73900
C1071       C  0.10287132  0.55462213  0.78076029    -0.07400
C1072       C  0.47272656  0.92392789  0.81818326    -0.06900
N1073       N  0.07717985  0.90114067  0.72270427    -0.26400
N1074       N  0.47752413  0.51811023  0.81521616    -0.47200
H1075       H  0.10892974  0.93767806  0.83531757     0.06400
C1076       C  0.09966454  0.51048730  0.68109460    -0.07300
Cl1077     Cl  0.03930561  0.96698090  0.74971948    -0.50300
C1078       C  0.45674292  0.54224509  0.69182207     0.42200
H1079       H  0.10847177  0.85437069  0.73115428     0.06400
N1080       N  0.10007620  0.55262652  0.71297261    -0.47000
C1081       C  0.21796191  0.52547169  0.93341622    -0.06500
C1082       C  0.22153462  0.56198276  0.92837670    -0.17700
C1083       C  0.20714582  0.57727936  0.90543393     0.10700
C1084       C  0.19066770  0.55524702  0.88626133    -0.06500
C1085       C  0.18461509  0.51927414  0.89256757    -0.17700
C1086       C  0.19736630  0.50446772  0.91610832     0.10700
S1087       S  0.20978832  0.62498153  0.90227650    -0.32700
S1088       S  0.19122469  0.95814998  0.91999710    -0.32700
H1089       H  0.19015896  0.96020123  0.94775002     0.28700
H1090       H  0.17653102  0.62847158  0.88966615     0.28700
H1091       H  0.23622677  0.57848767  0.94214013     0.19300
H1092       H  0.17087091  0.50211394  0.87871697     0.19300
C1093       C  0.34499443  0.89413931  0.93310416    -0.06500
C1094       C  0.38146990  0.89921062  0.92863110    -0.17700
C1095       C  0.39758981  0.88715609  0.90524913     0.10700
C1096       C  0.37636655  0.87039956  0.88571619    -0.06500
C1097       C  0.34029723  0.86351824  0.89122644    -0.17700
C1098       C  0.32457462  0.87483009  0.91469776     0.10700
S1099       S  0.44505725  0.89289656  0.90104636    -0.32700
S1100       S  0.27779229  0.86570673  0.91935291    -0.32700
H1101       H  0.27880434  0.86526420  0.94714212     0.28700
H1102       H  0.45200278  0.90758968  0.92609619     0.28700
H1103       H  0.39689643  0.91385275  0.94307341     0.19300
H1104       H  0.32370635  0.85018657  0.87677129     0.19300
C1105       C  0.10792307  0.64991343  0.56758143    -0.06500
C1106       C  0.14221190  0.65964970  0.57585975    -0.17700
C1107       C  0.15948189  0.64154743  0.59650900     0.10700
C1108       C  0.14104811  0.61474543  0.61087223    -0.06500
C1109       C  0.10777042  0.60339208  0.60106333    -0.17700
C1110       C  0.09160620  0.61996344  0.57930590     0.10700
S1111       S  0.20524470  0.65336019  0.60274815    -0.32700
S1112       S  0.04921095  0.60282916  0.56832711    -0.32700
H1113       H  0.05254965  0.61365665  0.54183489     0.28700
H1114       H  0.21588198  0.61831792  0.60870285     0.28700
H1115       H  0.15566773  0.68150749  0.56607085     0.19300
H1116       H  0.09341886  0.58216859  0.61087879     0.19300
C1117       C  0.44101688  0.81780139  0.61428429    -0.06500
C1118       C  0.47764631  0.82382138  0.61013285    -0.17700
C1119       C  0.49573564  0.80886111  0.58869978     0.10700
C1120       C  0.47726571  0.78656406  0.57100180    -0.06500
C1121       C  0.44042445  0.78183128  0.57418296    -0.17700
C1122       C  0.42203609  0.79756369  0.59530238     0.10700
S1123       S  0.04625888  0.81662704  0.58612875    -0.32700
S1124       S  0.37449677  0.79109377  0.59655630    -0.32700
H1125       H  0.36710233  0.82513524  0.60674301     0.28700
H1126       H  0.04695372  0.81582006  0.55833264     0.28700
H1127       H  0.49285532  0.83936888  0.62418617     0.19300
H1128       H  0.42598014  0.76534898  0.56025660     0.19300
C1129       C  0.09752340  0.78563490  0.92883833    -0.06500
C1130       C  0.13192799  0.77428418  0.92217414    -0.17700
C1131       C  0.15170071  0.79157120  0.90261101     0.10700
C1132       C  0.13559055  0.81886144  0.88735464    -0.06500
C1133       C  0.10162783  0.83122376  0.89500859    -0.17700
C1134       C  0.08295512  0.81560556  0.91595233     0.10700
S1135       S  0.19764383  0.77840901  0.89917439    -0.32700
S1136       S  0.04020897  0.83434561  0.92456660    -0.32700
H1137       H  0.04050767  0.82379393  0.95123302     0.28700
H1138       H  0.20985950  0.81308359  0.89378400     0.28700
H1139       H  0.14385392  0.75230637  0.93290662     0.19300
H1140       H  0.08888852  0.85266780  0.88424173     0.19300
C1141       C  0.44309723  0.61634021  0.88601711    -0.06500
C1142       C  0.48029329  0.61424328  0.88920630    -0.17700
C1143       C  0.49741267  0.62929702  0.91097814     0.10700
C1144       C  0.47725033  0.64793579  0.92997544    -0.06500
C1145       C  0.43997740  0.64875858  0.92762507    -0.17700
C1146       C  0.42261967  0.63283533  0.90601701     0.10700
S1147       S  0.54522179  0.62480364  0.91288401    -0.32700
S1148       S  0.37455825  0.63336737  0.90455034    -0.32700
H1149       H  0.36890323  0.64634706  0.93029441     0.28700
H1150       H  0.54735215  0.62606526  0.94062694     0.28700
H1151       H  0.49653711  0.60157999  0.87422091     0.19300
H1152       H  0.42461042  0.66278773  0.94242836     0.19300
C1153       C  0.34956555  0.52207288  0.56944658    -0.06500
C1154       C  0.32649271  0.54226860  0.58519059    -0.17700
C1155       C  0.33769185  0.55697213  0.60912669     0.10700
C1156       C  0.37358010  0.55263649  0.61737799    -0.06500
C1157       C  0.39712471  0.53388164  0.60075576    -0.17700
C1158       C  0.38549217  0.51819526  0.57715546     0.10700
S1159       S  0.30371643  0.57817840  0.62876990    -0.32700
S1160       S  0.41536564  0.97840471  0.56459757    -0.32700
H1161       H  0.40312504  0.98092049  0.53844484     0.28700
H1162       H  0.31240864  0.55927197  0.65193757     0.28700
H1163       H  0.29877839  0.54484890  0.57943904     0.19300
H1164       H  0.42475266  0.53061384  0.60647359     0.19300
C1165       C  0.22098576  0.89766157  0.56727072    -0.06500
C1166       C  0.22502309  0.86162831  0.57363204    -0.17700
C1167       C  0.21134659  0.84785478  0.59725608     0.10700
C1168       C  0.19398540  0.87091367  0.61533944    -0.06500
C1169       C  0.18827493  0.90656699  0.60797411    -0.17700
C1170       C  0.20132904  0.92004418  0.58418108     0.10700
S1171       S  0.21704073  0.80082044  0.60284924    -0.32700
S1172       S  0.19427065  0.96667226  0.57733383    -0.32700
H1173       H  0.19491206  0.96357765  0.54963761     0.28700
H1174       H  0.18321572  0.79611879  0.61430449     0.28700
H1175       H  0.23995782  0.84442295  0.56049721     0.19300
H1176       H  0.17474792  0.92463788  0.62129188     0.19300
C1177       C  0.18561064  0.55909145  0.11415961    -0.06500
C1178       C  0.18475195  0.52193831  0.11083968    -0.17700
C1179       C  0.20246610  0.50541700  0.08993426     0.10700
C1180       C  0.22229310  0.52626920  0.07199351    -0.06500
C1181       C  0.22195529  0.56346425  0.07446549    -0.17700
C1182       C  0.20330215  0.58010803  0.09499579     0.10700
S1183       S  0.18929027  0.95610800  0.08866866    -0.32700
S1184       S  0.20262207  0.62808452  0.09530895    -0.32700
H1185       H  0.16860257  0.63088572  0.10678672     0.28700
H1186       H  0.19266550  0.95309390  0.06108407     0.28700
H1187       H  0.17132563  0.50529384  0.12522174     0.19300
H1188       H  0.23633048  0.57959491  0.06025789     0.19300
C1189       C  0.12509307  0.62614034  0.38135001    -0.06500
C1190       C  0.12882946  0.66276679  0.38613588    -0.17700
C1191       C  0.11750099  0.67795215  0.40983770     0.10700
C1192       C  0.10106793  0.65637081  0.42915438    -0.06500
C1193       C  0.09818613  0.61966589  0.42489317    -0.17700
C1194       C  0.11063923  0.60419960  0.40148815     0.10700
S1195       S  0.12347115  0.72530220  0.41385706    -0.32700
S1196       S  0.10816845  0.55641640  0.39906593    -0.32700
H1197       H  0.14161595  0.55275634  0.38681607     0.28700
H1198       H  0.12623431  0.72464190  0.44158209     0.28700
H1199       H  0.14011549  0.67996257  0.37110135     0.19300
H1200       H  0.08566843  0.60307310  0.43976262     0.19300
C1201       C  0.35516517  0.52385674  0.43062818    -0.06500
C1202       C  0.34484302  0.55838774  0.42353947    -0.17700
C1203       C  0.36178084  0.57673386  0.40298641     0.10700
C1204       C  0.38849235  0.55941606  0.38780736    -0.06500
C1205       C  0.40014033  0.52550980  0.39617606    -0.17700
C1206       C  0.38426065  0.50793987  0.41756185     0.10700
S1207       S  0.34810394  0.62219122  0.39777150    -0.32700
S1208       S  0.40379231  0.96306885  0.42343144    -0.32700
H1209       H  0.39338182  0.96281675  0.45011032     0.28700
H1210       H  0.38278724  0.63444791  0.39242078     0.28700
H1211       H  0.32333119  0.57117824  0.43420525     0.19300
H1212       H  0.42098790  0.51177276  0.38547764     0.19300
C1213       C  0.10470716  0.77844086  0.06680155    -0.06500
C1214       C  0.10098569  0.81448289  0.07314621    -0.17700
C1215       C  0.11630640  0.82836147  0.09612957     0.10700
C1216       C  0.13447077  0.80528461  0.11380719    -0.06500
C1217       C  0.14037124  0.76980077  0.10619619    -0.17700
C1218       C  0.12603283  0.75630251  0.08282174     0.10700
S1219       S  0.11188492  0.87559823  0.10140508    -0.32700
S1220       S  0.13399012  0.71003043  0.07531876    -0.32700
H1221       H  0.13090855  0.71340947  0.04772454     0.28700
H1222       H  0.14585251  0.87955415  0.11282027     0.28700
H1223       H  0.08526331  0.83164869  0.06045119     0.19300
H1224       H  0.15489471  0.75185316  0.11906555     0.19300
C1225       C  0.47261008  0.65611252  0.06877942    -0.06500
C1226       C  0.49583502  0.63398049  0.08290123    -0.17700
C1227       C  0.48686744  0.62075475  0.10784868     0.10700
C1228       C  0.45297945  0.62863312  0.11881614    -0.06500
C1229       C  0.42929860  0.64998787  0.10403190    -0.17700
C1230       C  0.43871337  0.66374916  0.07927256     0.10700
S1231       S  0.02334893  0.60741627  0.13228728    -0.32700
S1232       S  0.40728614  0.69264550  0.06288472    -0.32700
H1233       H  0.41931444  0.68626473  0.03703879     0.28700
H1234       H  0.51722599  0.61651153  0.14872605     0.28700
H1235       H  0.02685305  0.63469345  0.08074860     0.19300
H1236       H  0.40320393  0.65636160  0.11183996     0.19300
C1237       C  0.18429321  0.86023835  0.38633006    -0.06500
C1238       C  0.17714610  0.89619513  0.39218018    -0.17700
C1239       C  0.19367447  0.91351228  0.41333120     0.10700
C1240       C  0.21860468  0.89493085  0.42895489    -0.06500
C1241       C  0.22401249  0.85849292  0.42449747    -0.17700
C1242       C  0.20678146  0.84075800  0.40362898     0.10700
S1243       S  0.18281976  0.95972381  0.41872200    -0.32700
S1244       S  0.21316434  0.79331258  0.39991102    -0.32700
H1245       H  0.23752815  0.78882279  0.42079028     0.28700
H1246       H  0.18932509  0.95990127  0.44608490     0.28700
H1247       H  0.15956329  0.91158553  0.37959989     0.19300
H1248       H  0.24226383  0.84416283  0.43722575     0.19300
C1249       C  0.34582390  0.88999668  0.07106240    -0.06500
C1250       C  0.38224560  0.89662387  0.07477726    -0.17700
C1251       C  0.40138921  0.88008056  0.09520232     0.10700
C1252       C  0.38347974  0.85724601  0.11316642    -0.06500
C1253       C  0.34738755  0.84918718  0.10825629    -0.17700
C1254       C  0.32862499  0.86492475  0.08738635     0.10700
S1255       S  0.44853273  0.88889789  0.09677511    -0.32700
S1256       S  0.28242103  0.85289689  0.08328626    -0.32700
H1257       H  0.28066584  0.85909278  0.05591063     0.28700
H1258       H  0.45765366  0.85433105  0.10512777     0.28700
H1259       H  0.39580115  0.91504692  0.06170922     0.19300
H1260       H  0.33300444  0.83145679  0.12133921     0.19300
C1261       C  0.44577059  0.80734877  0.38457891    -0.06500
C1262       C  0.48195322  0.81165012  0.39081768    -0.17700
C1263       C  0.49586350  0.79916281  0.41465446     0.10700
C1264       C  0.47336097  0.78136766  0.43265478    -0.06500
C1265       C  0.43680143  0.77910601  0.42741408    -0.17700
C1266       C  0.42262426  0.79258593  0.40382284     0.10700
S1267       S  0.04278899  0.80949051  0.42037853    -0.32700
S1268       S  0.37495192  0.79057350  0.39975705    -0.32700
H1269       H  0.37246404  0.82305880  0.38599671     0.28700
H1270       H  0.04103256  0.81036719  0.44813472     0.28700
H1271       H  0.49997821  0.82346820  0.37657170     0.19300
H1272       H  0.41943289  0.76591945  0.44144892     0.19300
C1273       C  0.93282423  0.31630551  0.35873919     0.79800
N1274       N  0.94963441  0.34259942  0.34514350    -0.78500
C1275       C  0.93996298  0.35034032  0.31993534     0.82300
N1276       N  0.91338638  0.33170704  0.30823375    -0.78400
C1277       C  0.89715200  0.30482992  0.32147898     0.82400
N1278       N  0.90709737  0.29701632  0.34655699    -0.80200
C1279       C  0.89690119  0.34720506  0.14002957     0.79800
N1280       N  0.88112766  0.32057547  0.15401853    -0.78500
C1281       C  0.89080102  0.31387515  0.17937353     0.82300
N1282       N  0.91605562  0.33418104  0.19102858    -0.78400
C1283       C  0.93307750  0.35978466  0.17705810     0.82400
N1284       N  0.92296617  0.36682371  0.15178330    -0.80200
C1285       C  0.66756800  0.34594021  0.36062088     0.79800
N1286       N  0.68808072  0.32107807  0.34828543    -0.78500
C1287       C  0.68196847  0.31238156  0.32257714     0.82300
N1288       N  0.65615050  0.32971743  0.30882074    -0.78400
C1289       C  0.63474580  0.35354294  0.32122732     0.82400
N1290       N  0.64068108  0.36159983  0.34692392    -0.80200
C1291       C  0.94164587  0.11512300  0.14495861     0.79800
N1292       N  0.91432770  0.13168551  0.15753395    -0.78500
C1293       C  0.90279169  0.11997551  0.18148264     0.82300
N1294       N  0.91875192  0.09137370  0.19299675    -0.78400
C1295       C  0.94626010  0.07482384  0.18054645     0.82400
N1296       N  0.95729448  0.08660688  0.15657771    -0.80200
C1297       C  0.95800510  0.37885122  0.30553601     0.42000
N1298       N  0.49333312  0.42089207  0.29618360     0.00900
C1299       C  0.49428028  0.02782150  0.18289609    -0.06900
H1300       H  0.50652455  0.39282136  0.16370221     0.06400
C1301       C  0.62553446  0.39574632  0.21914480    -0.07300
Co1302     Co  0.97173852  0.46158682  0.24820031     0.74200
N1303       N  0.49923021  0.42259616  0.19987942    -0.26500
Co1304     Co  0.53950168  0.46074678  0.20117485     0.74100
C1305       C  0.61475705  0.37928203  0.19443132     0.42200
N1306       N  0.59772675  0.42021308  0.28098773     0.00600
N1307       N  0.57897238  0.42188862  0.20307561     0.00700
N1308       N  0.95259219  0.02597696  0.21382140    -0.47300
H1309       H  0.92382167  0.39021403  0.26866315     0.06400
N1310       N  0.97356468  0.42346476  0.21855760     0.00900
N1311       N  0.57920974  0.49941337  0.20372014     0.00700
C1312       C  0.61387348  0.04586751  0.19561882     0.42300
N1313       N  0.57236370  0.42029002  0.29900487    -0.25900
C1314       C  0.94805736  0.02446056  0.27981923    -0.06800
N1315       N  0.48690846  0.39549630  0.31367697    -0.47000
N1316       N  0.58606992  0.02725234  0.18579694    -0.47300
C1317       C  0.95789725  0.03966707  0.30522716     0.42100
N1318       N  0.97455088  0.50106990  0.21923366     0.00900
N1319       N  0.57239975  0.49789970  0.30000313    -0.25900
N1320       N  0.97021492  0.42215785  0.27727857    -0.26400
N1321       N  0.59817437  0.49842725  0.28228339     0.00600
H1322       H  0.56061450  0.03192707  0.33339200     0.06500
H1323       H  0.64691635  0.03448754  0.23292625     0.06500
N1324       N  0.50013829  0.49943925  0.20049035    -0.26500
N1325       N  0.60202408  0.42198673  0.22279590    -0.26100
N1326       N  0.49327216  0.49793289  0.29726317     0.00900
C1327       C  0.95732050  0.38362119  0.19098167     0.42300
C1328       C  0.57836268  0.39346932  0.31595890    -0.07400
N1329       N  0.60180514  0.49952902  0.22371648    -0.26100
H1330       H  0.64809930  0.38986486  0.23172117     0.06500
N1331       N  0.94845116  0.39970780  0.21379807    -0.47300
H1332       H  0.56276044  0.38752660  0.33338663     0.06500
C1333       C  0.60925586  0.04384805  0.30708687     0.42200
C1334       C  0.94668203  0.39580951  0.28099795    -0.06800
Co1335     Co  0.53284539  0.45923186  0.29872667     0.73800
N1336       N  0.62113727  0.39432570  0.28457927    -0.47000
C1337       C  0.96421011  0.04417514  0.19252243     0.42400
N1338       N  0.48553791  0.02268330  0.31484495    -0.47000
Co1339     Co  0.60068346  0.46008228  0.25251926     0.73900
C1340       C  0.62429134  0.02896608  0.22033387    -0.07400
C1341       C  0.49165622  0.39775993  0.18164045    -0.06900
N1342       N  0.97110107  0.49963378  0.27789826    -0.26400
N1343       N  0.58582968  0.39682169  0.18534937    -0.47200
H1344       H  0.51075937  0.03414394  0.16600528     0.06400
C1345       C  0.57724820  0.02593897  0.31651704    -0.07300
Cl1346     Cl  0.53612104  0.46020513  0.24996031    -0.50300
C1347       C  0.61035337  0.37586056  0.30598382     0.42200
H1348       H  0.92528006  0.03023649  0.26742591     0.06400
N1349       N  0.62079569  0.02632003  0.28551529    -0.47000
C1350       C  0.64409684  0.31586387  0.14288813     0.79800
N1351       N  0.62540259  0.34183366  0.15547610    -0.78500
C1352       C  0.63384613  0.35091735  0.18067332     0.82300
N1353       N  0.66071834  0.33384582  0.19329208    -0.78400
C1354       C  0.67885973  0.30748128  0.18103517     0.82400
N1355       N  0.67048945  0.29844680  0.15591154    -0.80200
C1356       C  0.90112373  0.07239291  0.35978335     0.79800
N1357       N  0.92739502  0.05477895  0.34652809    -0.78500
C1358       C  0.93481788  0.06281948  0.32091840     0.82300
N1359       N  0.91559692  0.08818756  0.30834238    -0.78400
C1360       C  0.89035224  0.10682586  0.32147540     0.82400
N1361       N  0.88268666  0.09835318  0.34690425    -0.80200
C1362       C  0.63554606  0.11324703  0.35488720     0.79800
N1363       N  0.61770052  0.08605792  0.34320671    -0.78500
C1364       C  0.62749383  0.07425977  0.31894422     0.82300
N1365       N  0.65497159  0.09006252  0.30604799    -0.78400
C1366       C  0.67231530  0.11788544  0.31726280     0.82400
N1367       N  0.66256147  0.12936814  0.34162636    -0.80200
C1368       C  0.67050727  0.07448066  0.14025014     0.79800
N1369       N  0.64409799  0.05854732  0.15426711    -0.78500
C1370       C  0.63761329  0.06791041  0.17964330     0.82300
N1371       N  0.65812730  0.09304099  0.19135797    -0.78400
C1372       C  0.68357733  0.11032438  0.17727855     0.82400
N1373       N  0.69024506  0.10050765  0.15190068    -0.80200
C1374       C  0.86942428  0.28987386  0.19558253     0.42000
N1375       N  0.82715397  0.25357534  0.20433484     0.00900
C1376       C  0.72289109  0.25564955  0.31816017    -0.06900
H1377       H  0.85690210  0.23653572  0.33567054     0.06400
C1378       C  0.85132900  0.12103448  0.28113635    -0.07300
Co1379     Co  0.78780995  0.27499527  0.25316893     0.74200
N1380       N  0.82526142  0.24654172  0.30072594    -0.26500
Co1381     Co  0.78627173  0.20727802  0.29940906     0.74100
C1382       C  0.86679658  0.13029801  0.30647575     0.42200
N1383       N  0.82763931  0.14871847  0.21905784     0.00600
N1384       N  0.82468565  0.16690144  0.29779330     0.00700
N1385       N  0.72386281  0.29793468  0.28630539    -0.47300
H1386       H  0.85862046  0.32259514  0.23308741     0.06400
N1387       N  0.82588137  0.27210503  0.28279943     0.00900
N1388       N  0.74708466  0.16840006  0.29627773     0.00700
C1389       C  0.70227364  0.13476255  0.30363159     0.42300
N1390       N  0.82764831  0.17475973  0.20151977    -0.25900
C1391       C  0.72370289  0.29996946  0.21965762    -0.06800
N1392       N  0.85133688  0.26155490  0.18620690    -0.47000
N1393       N  0.72049136  0.16298496  0.31297836    -0.47700
C1394       C  0.70739934  0.28909895  0.19493601     0.42100
N1395       N  0.74817191  0.27307463  0.28197110     0.00900
N1396       N  0.75023798  0.17382107  0.19998160    -0.25900
N1397       N  0.82725944  0.27602520  0.22436298    -0.26400
N1398       N  0.74943134  0.14866640  0.21818346     0.00600
H1399       H  0.72043289  0.18157250  0.16377543     0.06500
H1400       H  0.71381142  0.10052431  0.26690807     0.06500
N1401       N  0.74810610  0.24789290  0.30018810    -0.26500
N1402       N  0.82528797  0.14473929  0.27757291    -0.26100
N1403       N  0.74991098  0.25339530  0.20371356     0.00900
C1404       C  0.86852870  0.28487072  0.30891878     0.42300
C1405       C  0.85512656  0.17029188  0.18500444    -0.07400
N1406       N  0.74759873  0.14516580  0.27668488    -0.26100
H1407       H  0.85698115  0.09859261  0.26843867     0.06500
N1408       N  0.85137736  0.29566595  0.28698101    -0.47300
H1409       H  0.86167066  0.18726814  0.16841923     0.06500
C1410       C  0.70813875  0.13402568  0.19116591     0.42200
C1411       C  0.85343383  0.29967805  0.22075319    -0.06800
Co1412     Co  0.78864220  0.21394043  0.20178293     0.73800
N1413       N  0.85423020  0.12594279  0.21539002    -0.47000
C1414       C  0.70653683  0.28854374  0.30857981     0.42400
N1415       N  0.72492741  0.26021907  0.18593246    -0.47000
Co1416     Co  0.78750907  0.14609138  0.24785475     0.73900
C1417       C  0.72006955  0.12277235  0.27963272    -0.07400
C1418       C  0.85129911  0.25246149  0.31832637    -0.06900
N1419       N  0.74988777  0.27642569  0.22341954    -0.26400
N1420       N  0.84863640  0.15853855  0.31610553    -0.47200
H1421       H  0.71748538  0.24077303  0.33603457     0.06400
C1422       C  0.72531479  0.16652151  0.18165978    -0.07300
Cl1423     Cl  0.78748122  0.21056767  0.25058449    -0.50300
C1424       C  0.87269796  0.13807373  0.19428304     0.42200
H1425       H  0.71777295  0.32252093  0.23217524     0.06400
N1426       N  0.72475001  0.12437441  0.21363666    -0.47000
N1427       N  0.78125445  0.45973222  0.53731688    -0.37000
N1428       N  0.74116689  0.42260247  0.49645877    -0.57600
N1429       N  0.77901927  0.46439420  0.45667422    -0.37000
N1430       N  0.82236789  0.49801992  0.49804683    -0.57600
C1431       C  0.76679012  0.43244253  0.55100295     0.26600
C1432       C  0.80854171  0.47235264  0.55199455     0.26600
C1433       C  0.76031696  0.44198001  0.44088852     0.26600
C1434       C  0.80389689  0.48083391  0.44155523     0.26600
C1435       C  0.72284166  0.41156718  0.51789789     0.35200
C1436       C  0.72108294  0.41432846  0.47524194     0.35200
C1437       C  0.84074368  0.01153711  0.51904512     0.35200
C1438       C  0.84038250  0.01275596  0.47612082     0.35200
C1439       C  0.78512378  0.42760262  0.57454564    -0.22300
C1440       C  0.81150826  0.45283553  0.57517150    -0.22300
C1441       C  0.77308016  0.44467732  0.41524263    -0.22300
C1442       C  0.80035984  0.46917378  0.41562827    -0.22300
C1443       C  0.69106858  0.39587651  0.51037201    -0.23400
C1444       C  0.68997873  0.39752673  0.48323967    -0.23400
C1445       C  0.86132766  0.04040287  0.51164867    -0.23400
C1446       C  0.86135456  0.04104005  0.48444145    -0.23400
C1447       C  0.73548574  0.41401288  0.54402393    -0.18700
C1448       C  0.83506182  0.00018252  0.54535853    -0.18700
C1449       C  0.83414497  0.00324459  0.44937044    -0.18700
C1450       C  0.73125725  0.42003471  0.44870495    -0.18700
H1451       H  0.77965462  0.40826669  0.58989398     0.14200
H1452       H  0.83046243  0.45671298  0.59104546     0.14200
H1453       H  0.76353898  0.43069786  0.39793298     0.14200
H1454       H  0.81559504  0.47760738  0.39858643     0.14200
H1455       H  0.67100847  0.38422239  0.52306889     0.12500
H1456       H  0.66875490  0.38750335  0.47081738     0.12500
H1457       H  0.87529040  0.05871482  0.52449336     0.12500
H1458       H  0.87535056  0.06012627  0.47224620     0.12500
H1459       H  0.77116171  0.47102980  0.52012627     0.25700
H1460       H  0.77418054  0.46921355  0.47645765     0.25700
N1461       N  0.53463687  0.22107656  0.03901114    -0.37000
N1462       N  0.57533853  0.25922768  0.99932830    -0.57600
N1463       N  0.53873841  0.21831813  0.95872587    -0.37000
N1464       N  0.99575782  0.17928954  0.99775303    -0.57600
C1465       C  0.55062973  0.24631032  0.05378908     0.26600
C1466       C  0.50732415  0.20802401  0.05341118     0.26600
C1467       C  0.55465849  0.24368997  0.94377513     0.26600
C1468       C  0.51378238  0.20228536  0.94352507     0.26600
C1469       C  0.59419708  0.26870143  0.02090975     0.35200
C1470       C  0.59474202  0.26932914  0.97819417     0.35200
C1471       C  0.98523573  0.16072730  0.01927836     0.35200
C1472       C  0.98755970  0.15925524  0.97650227     0.35200
C1473       C  0.53328644  0.24947225  0.07787222    -0.22300
C1474       C  0.50589191  0.22528492  0.07763687    -0.22300
C1475       C  0.53985383  0.24336893  0.91862112    -0.22300
C1476       C  0.51402587  0.21741206  0.91850827    -0.22300
C1477       C  0.62556434  0.28534251  0.01354975    -0.23400
C1478       C  0.62571791  0.28614748  0.98641501    -0.23400
C1479       C  0.96968019  0.12893228  0.01174587    -0.23400
C1480       C  0.97113184  0.12798041  0.98453732    -0.23400
C1481       C  0.58242680  0.26410256  0.04710278    -0.18700
C1482       C  0.98823618  0.17327389  0.04545350    -0.18700
C1483       C  0.99321730  0.16976453  0.94998229    -0.18700
C1484       C  0.58365656  0.26550563  0.95168392    -0.18700
H1485       H  0.54019988  0.26682571  0.09415468     0.14200
H1486       H  0.48766026  0.22029642  0.09378429     0.14200
H1487       H  0.54715261  0.25973010  0.90186963     0.14200
H1488       H  0.49762413  0.21015219  0.90175525     0.14200
H1489       H  0.64590373  0.29627612  0.02634855     0.12500
H1490       H  0.64627117  0.29789017  0.97423057     0.12500
H1491       H  0.95832881  0.10874929  0.02448595     0.12500
H1492       H  0.96120736  0.10675677  0.97210647     0.12500
H1493       H  0.54392023  0.21110675  0.02119789     0.25700
H1494       H  0.54597471  0.21071394  0.97767662     0.25700
N1495       N  0.53667793  0.21464367  0.46174643    -0.37000
N1496       N  0.49875114  0.25323772  0.50252668    -0.57600
N1497       N  0.54384986  0.21800355  0.54213640    -0.37000
N1498       N  0.57817083  0.17597402  0.50089814    -0.57600
C1499       C  0.50915895  0.22841635  0.44793045     0.26600
C1500       C  0.55049769  0.18816728  0.44698793     0.26600
C1501       C  0.52006789  0.23497030  0.55787021     0.26600
C1502       C  0.56100955  0.19341011  0.55713091     0.26600
C1503       C  0.98418207  0.27186419  0.48195067     0.35200
C1504       C  0.98843525  0.27311737  0.52448551     0.35200
C1505       C  0.59482132  0.16434642  0.47885624     0.35200
C1506       C  0.59780468  0.16477965  0.52168310     0.35200
C1507       C  0.50529471  0.21040553  0.42419087    -0.22300
C1508       C  0.53145027  0.18492797  0.42359227    -0.22300
C1509       C  0.52254342  0.22142793  0.58331013    -0.22300
C1510       C  0.54839880  0.19547053  0.58289751    -0.22300
C1511       C  0.96867328  0.30349517  0.48991508    -0.23400
C1512       C  0.97122074  0.30423574  0.51701011    -0.23400
C1513       C  0.62502823  0.14523646  0.48558426    -0.23400
C1514       C  0.62671405  0.14514129  0.51275543    -0.23400
C1515       C  0.98623969  0.25972262  0.45574216    -0.18700
C1516       C  0.58185612  0.16916224  0.45288756    -0.18700
C1517       C  0.58858931  0.17002088  0.54855918    -0.18700
C1518       C  0.99560642  0.26277764  0.55075869    -0.18700
H1519       H  0.48617411  0.21569541  0.40864278     0.14200
H1520       H  0.53642894  0.16663172  0.40749513     0.14200
H1521       H  0.50747319  0.22958848  0.60050544     0.14200
H1522       H  0.55698263  0.18006776  0.59982549     0.14200
H1523       H  0.95666601  0.32372990  0.47753530     0.12500
H1524       H  0.96170547  0.32533104  0.52973579     0.12500
H1525       H  0.64345935  0.13209281  0.47235847     0.12500
H1526       H  0.64682322  0.13187884  0.52451172     0.12500
H1527       H  0.54750041  0.22489840  0.47900747     0.25700
H1528       H  0.54909635  0.22405290  0.52256419     0.25700
N1529       N  0.78150682  0.45725656  0.96233976    -0.37000
N1530       N  0.74263433  0.49753665  0.00216374    -0.57600
N1531       N  0.77727975  0.45459311  0.04283314    -0.37000
N1532       N  0.82001929  0.41827407  0.00270536    -0.57600
C1533       C  0.76737588  0.48376882  0.94763524     0.26600
C1534       C  0.80803530  0.44259244  0.94794351     0.26600
C1535       C  0.76216090  0.48064258  0.05754163     0.26600
C1536       C  0.80280872  0.43906734  0.05786521     0.26600
C1537       C  0.72463390  0.01010296  0.98156940     0.35200
C1538       C  0.72347230  0.00836264  0.02436521     0.35200
C1539       C  0.83102913  0.39987577  0.98128458     0.35200
C1540       C  0.82905813  0.39865717  0.02402978     0.35200
C1541       C  0.78514078  0.48600882  0.92364175    -0.22300
C1542       C  0.81078664  0.45999140  0.92382781    -0.22300
C1543       C  0.77810801  0.48146875  0.08228142    -0.22300
C1544       C  0.80368274  0.45522159  0.08250118    -0.22300
C1545       C  0.69361430  0.02716428  0.98921502    -0.23400
C1546       C  0.69283682  0.02602868  0.01638982    -0.23400
C1547       C  0.84748958  0.36854568  0.98897391    -0.23400
C1548       C  0.84626634  0.36776855  0.01615550    -0.23400
C1549       C  0.73634541  0.00613771  0.95522679    -0.18700
C1550       C  0.82783445  0.41207810  0.95502133    -0.18700
C1551       C  0.82406879  0.40951206  0.05048041    -0.18700
C1552       C  0.73396211  0.00278661  0.05090651    -0.18700
H1553       H  0.77970949  0.50407197  0.90744233     0.14200
H1554       H  0.82895958  0.45411881  0.90780618     0.14200
H1555       H  0.77176970  0.49899571  0.09858310     0.14200
H1556       H  0.82085715  0.44865534  0.09900118     0.14200
H1557       H  0.67369635  0.03917345  0.97655043     0.12500
H1558       H  0.67212419  0.03699207  0.02883177     0.12500
H1559       H  0.85935010  0.34855946  0.97634591     0.12500
H1560       H  0.85702253  0.34701201  0.02869204     0.12500
H1561       H  0.77167302  0.44788169  0.98019770     0.25700
H1562       H  0.76915186  0.44639958  0.02420077     0.25700
C1563       C  0.88922269  0.36037003  0.85820620     0.79800
N1564       N  0.87314131  0.33378404  0.84443155    -0.78500
C1565       C  0.88337383  0.32598147  0.81938959     0.82300
N1566       N  0.90996842  0.34485899  0.80793114    -0.78400
C1567       C  0.92583694  0.37189847  0.82123523     0.82400
N1568       N  0.91526967  0.37977185  0.84626606    -0.80200
C1569       C  0.92753320  0.10344129  0.85928268     0.79800
N1570       N  0.94475480  0.07691797  0.84618137    -0.78500
C1571       C  0.93605702  0.06899389  0.82086065     0.82300
N1572       N  0.91060205  0.08807721  0.80834932    -0.78400
C1573       C  0.89237596  0.11368270  0.82135758     0.82400
N1574       N  0.90130085  0.12187379  0.84665520    -0.80200
C1575       C  0.68418801  0.06631461  0.85795379     0.79800
N1576       N  0.70302640  0.09281536  0.84602626    -0.78500
C1577       C  0.69475291  0.10339651  0.82101980     0.82300
N1578       N  0.66787959  0.08712431  0.80778649    -0.78400
C1579       C  0.64957465  0.06013878  0.81925000     0.82400
N1580       N  0.65777326  0.04986451  0.84422596    -0.80200
C1581       C  0.65175772  0.32924244  0.86108429     0.79800
N1582       N  0.63390641  0.35549516  0.84804267    -0.78500
C1583       C  0.64034694  0.36213511  0.82209770     0.82300
N1584       N  0.66458931  0.34213089  0.80886552    -0.78400
C1585       C  0.68375146  0.31698716  0.82188981     0.82400
N1586       N  0.67676062  0.31021994  0.84772837    -0.80200
C1587       C  0.65376068  0.09962255  0.63815486     0.79800
N1588       N  0.63551381  0.07296860  0.65047670    -0.78500
C1589       C  0.64170896  0.06515614  0.67630367     0.82300
N1590       N  0.66589759  0.08443820  0.69008687    -0.78400
C1591       C  0.68526051  0.11006027  0.67788958     0.82400
N1592       N  0.67863237  0.11802827  0.65216383    -0.80200
C1593       C  0.88436725  0.06104585  0.64398248     0.79800
N1594       N  0.91240196  0.04510848  0.65622184    -0.78500
C1595       C  0.92443229  0.05706295  0.67995741     0.82300
N1596       N  0.90821487  0.08521442  0.69175634    -0.78400
C1597       C  0.88000643  0.10122028  0.67980739     0.82400
N1598       N  0.86850708  0.08925006  0.65594173    -0.80200
C1599       C  0.86549814  0.29745651  0.80477498     0.42000
N1600       N  0.82988303  0.25480757  0.79564982     0.00900
C1601       C  0.82925983  0.14860145  0.68318197    -0.06900
H1602       H  0.81755670  0.28274020  0.66290656     0.06400
C1603       C  0.69767392  0.27807554  0.71794105    -0.07300
Co1604     Co  0.85231981  0.21516821  0.74692702     0.74200
N1605       N  0.82466661  0.25283253  0.69913634    -0.26500
Co1606     Co  0.78457133  0.21411868  0.70041536     0.74100
C1607       C  0.70853528  0.29474192  0.69322509     0.42200
N1608       N  0.72482159  0.25312403  0.78057091     0.00600
N1609       N  0.74472739  0.25254626  0.70224013     0.00700
N1610       N  0.87327119  0.14937393  0.71385520    -0.47300
H1611       H  0.89981845  0.28653738  0.76794951     0.06400
N1612       N  0.84962519  0.25358229  0.71751819     0.00900
N1613       N  0.74490471  0.17519907  0.70258812     0.00700
C1614       C  0.70857401  0.13292900  0.69367794     0.42300
N1615       N  0.74994493  0.25337445  0.79884424    -0.25900
C1616       C  0.87806148  0.15181473  0.78055423    -0.06800
N1617       N  0.83640719  0.27988819  0.81336894    -0.47000
N1618       N  0.73686310  0.15121987  0.68430535    -0.47300
C1619       C  0.86892159  0.13683514  0.80611851     0.42100
N1620       N  0.85005091  0.17549708  0.71776088     0.00900
N1621       N  0.75201531  0.17626763  0.79950019    -0.25900
N1622       N  0.85331264  0.25452013  0.77615968    -0.26400
N1623       N  0.72640871  0.17524095  0.78160472     0.00600
H1624       H  0.76268519  0.14506788  0.83457597     0.06500
H1625       H  0.67619594  0.14291619  0.73147742     0.06500
N1626       N  0.82416537  0.17553305  0.70007172    -0.26500
N1627       N  0.72150095  0.25211322  0.72186028    -0.26100
N1628       N  0.83148740  0.17773018  0.79673339     0.00900
C1629       C  0.86465026  0.29505529  0.69074544     0.42300
C1630       C  0.74170749  0.27825098  0.81690383    -0.07400
N1631       N  0.72256393  0.17461832  0.72272418    -0.26100
H1632       H  0.67491022  0.28369646  0.73035357     0.06500
N1633       N  0.87399656  0.27826967  0.71320459    -0.47300
H1634       H  0.75628824  0.28352719  0.83493145     0.06500
C1635       C  0.71423178  0.13255122  0.80822450     0.42200
C1636       C  0.87683875  0.28084786  0.78012799    -0.06800
Co1637     Co  0.79090613  0.21562183  0.79822689     0.73800
N1638       N  0.69953407  0.27694274  0.78497198    -0.47000
C1639       C  0.86171290  0.13134726  0.69238534     0.42400
N1640       N  0.84021004  0.15447063  0.81540372    -0.47000
Co1641     Co  0.72323722  0.21372178  0.75172453     0.73900
C1642       C  0.69897209  0.14841262  0.71904040    -0.07400
C1643       C  0.83225905  0.27786937  0.68095303    -0.06900
N1644       N  0.85378923  0.17720230  0.77656598    -0.26400
N1645       N  0.73776240  0.27753611  0.68442635    -0.47200
H1646       H  0.81258029  0.14229523  0.66638802     0.06400
C1647       C  0.74653870  0.15028618  0.81727707    -0.07300
Cl1648     Cl  0.78775250  0.21471042  0.74932811    -0.50300
C1649       C  0.70858117  0.29418380  0.80731702     0.42200
H1650       H  0.90089947  0.14656933  0.76812173     0.06400
N1651       N  0.70317998  0.14943308  0.78611524    -0.47000
C1652       C  0.92599590  0.32957747  0.63975571     0.79800
N1653       N  0.89934540  0.31093106  0.65162014    -0.78500
C1654       C  0.88917666  0.31866748  0.67670648     0.82300
N1655       N  0.90678421  0.34415810  0.69044248    -0.78400
C1656       C  0.93270781  0.36361091  0.67864375     0.82400
N1657       N  0.94245955  0.35604433  0.65344594    -0.80200
C1658       C  0.68014805  0.35893075  0.64152618     0.79800
N1659       N  0.69861274  0.33281953  0.65427461    -0.78500
C1660       C  0.68980099  0.32346264  0.67940732     0.82300
N1661       N  0.66295501  0.34062713  0.69193509    -0.78400
C1662       C  0.64516436  0.36729123  0.67969005     0.82400
N1663       N  0.65374263  0.37635204  0.65457051    -0.80200
C1664       C  0.95469338  0.38741287  0.69466861     0.42000
N1665       N  0.99758068  0.42312443  0.70340321     0.00900
C1666       C  0.60169495  0.42013971  0.81718544    -0.06900
H1667       H  0.96683830  0.44021968  0.83505409     0.06400
C1668       C  0.97449559  0.05572492  0.78007397    -0.07300
Co1669     Co  0.53681895  0.40206487  0.75206273     0.74200
N1670       N  0.99837588  0.42982509  0.80013182    -0.26500
Co1671     Co  0.53907667  0.46940969  0.79845022     0.74100
C1672       C  0.95889468  0.04576523  0.80529338     0.42200
N1673       N  0.99950277  0.02870290  0.71775716     0.00600
N1674       N  0.00139250  0.00990155  0.79654059     0.00700
N1675       N  0.60015149  0.37805681  0.78527814    -0.47300
H1676       H  0.96465288  0.35490147  0.73244706     0.06400
N1677       N  0.99749779  0.40433601  0.78221564     0.00900
N1678       N  0.57749955  0.00738231  0.79614683     0.00700
C1679       C  0.62089946  0.04227519  0.80481851     0.42300
N1680       N  0.99968435  0.00264549  0.70028148    -0.25900
C1681       C  0.60038672  0.37559035  0.71844069    -0.06800
N1682       N  0.97336188  0.41538404  0.68519931    -0.47000
N1683       N  0.60292960  0.01358971  0.81370045    -0.47300
C1684       C  0.61692679  0.38615693  0.69367938     0.42100
N1685       N  0.57629051  0.40332297  0.78092373     0.00900
N1686       N  0.57534601  0.00172438  0.69964280    -0.25900
N1687       N  0.99692387  0.40079433  0.72354951    -0.26400
N1688       N  0.57648972  0.02682521  0.71785540     0.00600
H1689       H  0.60472023  0.99392062  0.66330823     0.06500
H1690       H  0.61019079  0.07641067  0.76783987     0.06500
N1691       N  0.57668829  0.42839233  0.79917424    -0.26500
N1692       N  0.00082438  0.03234237  0.77643394    -0.26100
N1693       N  0.57561425  0.42316868  0.70277703     0.00900
C1694       C  0.95462388  0.39191901  0.80852043     0.42300
C1695       C  0.97258446  0.00721810  0.68342302    -0.07400
N1696       N  0.57743781  0.03062741  0.77652851    -0.26100
H1697       H  0.96873117  0.07837215  0.76755735     0.06500
N1698       N  0.97170831  0.38105365  0.78651881    -0.47300
H1699       H  0.96631861  0.99028269  0.66678061     0.06500
C1700       C  0.61780837  0.04117457  0.69067936     0.42200
C1701       C  0.97035869  0.37758278  0.71996451    -0.06800
Co1702     Co  0.53772783  0.46345713  0.70077641     0.73800
N1703       N  0.97305566  0.05153370  0.71378199    -0.47000
C1704       C  0.61760185  0.38708894  0.80755890     0.42400
N1705       N  0.60026350  0.41571038  0.68489819    -0.47000
Co1706     Co  0.53807076  0.02999987  0.74737011     0.73900
C1707       C  0.60419880  0.05370206  0.78021972    -0.07400
C1708       C  0.97223621  0.42420220  0.81775575    -0.06900
N1709       N  0.57496592  0.39994509  0.72239036    -0.26400
N1710       N  0.97728328  0.01765731  0.81477615    -0.47200
H1711       H  0.60713681  0.43472219  0.83516490     0.06400
C1712       C  0.60024974  0.00884451  0.68127691    -0.07300
Cl1713     Cl  0.53821803  0.46649529  0.74961607    -0.50300
C1714       C  0.95498958  0.03946715  0.69248344     0.42200
H1715       H  0.60557188  0.35265298  0.73080110     0.06400
N1716       N  0.60136676  0.05091550  0.71319659    -0.47000
C1717       C  0.71616649  0.02329343  0.93335843    -0.06500
C1718       C  0.72090649  0.05971043  0.92843178    -0.17700
C1719       C  0.70924391  0.07517174  0.90459206     0.10700
C1720       C  0.69350040  0.05335454  0.88493079    -0.06500
C1721       C  0.68670657  0.01742933  0.89092714    -0.17700
C1722       C  0.69735240  0.00242646  0.91490979     0.10700
S1723       S  0.71424779  0.12259756  0.89996873    -0.32700
S1724       S  0.69235520  0.45278356  0.91707969    -0.32700
H1725       H  0.68964525  0.45387845  0.94480306     0.28700
H1726       H  0.72411346  0.13061717  0.92613681     0.28700
H1727       H  0.73511319  0.07562236  0.94282102     0.19300
H1728       H  0.67391523  0.00039427  0.87649906     0.19300
C1729       C  0.84529874  0.39220760  0.93322670    -0.06500
C1730       C  0.88163175  0.39775760  0.92835712    -0.17700
C1731       C  0.89742248  0.38640706  0.90459496     0.10700
C1732       C  0.87608854  0.36952941  0.88513173    -0.06500
C1733       C  0.84026895  0.36203250  0.89107193    -0.17700
C1734       C  0.82480640  0.37297115  0.91478220     0.10700
S1735       S  0.94464786  0.39329749  0.89980478    -0.32700
S1736       S  0.77806275  0.36374891  0.91955962    -0.32700
H1737       H  0.77903439  0.36358579  0.94734607     0.28700
H1738       H  0.95121633  0.41125742  0.92370203     0.28700
H1739       H  0.89715370  0.41236547  0.94275806     0.19300
H1740       H  0.82356161  0.34869067  0.87669795     0.19300
C1741       C  0.60747951  0.14823264  0.56892255    -0.06500
C1742       C  0.64219508  0.15750225  0.57653382    -0.17700
C1743       C  0.65972374  0.13944153  0.59708679     0.10700
C1744       C  0.64124464  0.11309094  0.61186368    -0.06500
C1745       C  0.60729972  0.10252053  0.60292408    -0.17700
C1746       C  0.59080211  0.11906651  0.58136753     0.10700
S1747       S  0.70578932  0.15069717  0.60269543    -0.32700
S1748       S  0.54759823  0.10289261  0.57144877    -0.32700
H1749       H  0.55166205  0.11079942  0.54444054     0.28700
H1750       H  0.71613822  0.11559131  0.60871687     0.28700
H1751       H  0.65577971  0.17887665  0.56626657     0.19300
H1752       H  0.59274174  0.08185381  0.61321667     0.19300
C1753       C  0.94186407  0.31654594  0.61462004    -0.06500
C1754       C  0.97872144  0.32125107  0.61070594    -0.17700
C1755       C  0.99651177  0.30513636  0.58960497     0.10700
C1756       C  0.97752931  0.28273575  0.57228672    -0.06500
C1757       C  0.94057778  0.27906282  0.57537989    -0.17700
C1758       C  0.92246517  0.29625437  0.59592205     0.10700
S1759       S  0.54413533  0.31729762  0.58408618    -0.32700
S1760       S  0.87465610  0.29185354  0.59664658    -0.32700
H1761       H  0.86850683  0.32656930  0.60601019     0.28700
H1762       H  0.54479702  0.31321889  0.55646086     0.28700
H1763       H  0.99419539  0.33685344  0.62456613     0.19300
H1764       H  0.92574207  0.26271965  0.56158784     0.19300
C1765       C  0.60340557  0.28556417  0.93101744    -0.06500
C1766       C  0.63669418  0.27287514  0.92282042    -0.17700
C1767       C  0.65529093  0.28918637  0.90211767     0.10700
C1768       C  0.63904395  0.31733038  0.88769118    -0.06500
C1769       C  0.60670509  0.33139123  0.89731979    -0.17700
C1770       C  0.58929208  0.31641350  0.91908632     0.10700
S1771       S  0.69973426  0.27309666  0.89588442    -0.32700
S1772       S  0.54823154  0.33677384  0.92982851    -0.32700
H1773       H  0.55093787  0.32642062  0.95646906     0.28700
H1774       H  0.71380126  0.30718522  0.89094189     0.28700
H1775       H  0.64836785  0.25013784  0.93280028     0.19300
H1776       H  0.59405354  0.35361160  0.88740415     0.19300
C1777       C  0.94257886  0.11682869  0.88454547    -0.06500
C1778       C  0.97963272  0.11411544  0.88827259    -0.17700
C1779       C  0.99648794  0.12964584  0.90997045     0.10700
C1780       C  0.97609832  0.14881255  0.92854430    -0.06500
C1781       C  0.93896899  0.15048032  0.92556877    -0.17700
C1782       C  0.92191796  0.13465756  0.90381554     0.10700
S1783       S  0.04429543  0.12528166  0.91219808    -0.32700
S1784       S  0.87396505  0.13714860  0.90119113    -0.32700
H1785       H  0.86802112  0.15654144  0.92454885     0.28700
H1786       H  0.04629404  0.12725676  0.93991708     0.28700
H1787       H  0.99599282  0.10076955  0.87368698     0.19300
H1788       H  0.92353543  0.16506563  0.94002875     0.19300
C1789       C  0.85084220  0.02020368  0.56784151    -0.06500
C1790       C  0.82758292  0.04128899  0.58278337    -0.17700
C1791       C  0.83725058  0.05446179  0.60760647     0.10700
C1792       C  0.87200574  0.04798636  0.61760720    -0.06500
C1793       C  0.89585474  0.02814492  0.60186577    -0.17700
C1794       C  0.88555868  0.01376021  0.57743015     0.10700
S1795       S  0.80251963  0.07631075  0.62607236    -0.32700
S1796       S  0.91348721  0.49630539  0.55521805    -0.32700
H1797       H  0.88992197  0.47036455  0.54553591     0.28700
H1798       H  0.80844651  0.05610981  0.64911955     0.28700
H1799       H  0.80058289  0.04541600  0.57578551     0.19300
H1800       H  0.92263896  0.02299926  0.60887792     0.19300
C1801       C  0.71476599  0.39801153  0.56590242    -0.06500
C1802       C  0.71960070  0.36196308  0.57200155    -0.17700
C1803       C  0.70667962  0.34769948  0.59573906     0.10700
C1804       C  0.68984837  0.37035953  0.61434282    -0.06500
C1805       C  0.68319889  0.40594883  0.60720773    -0.17700
C1806       C  0.69499585  0.41977256  0.58316230     0.10700
S1807       S  0.71203449  0.30050852  0.60069102    -0.32700
S1808       S  0.68598003  0.46604928  0.57628821    -0.32700
H1809       H  0.68523864  0.46263520  0.54861965     0.28700
H1810       H  0.67854988  0.29596388  0.61272877     0.28700
H1811       H  0.73438671  0.34512676  0.55852006     0.19300
H1812       H  0.66972416  0.42367583  0.62080577     0.19300
C1813       C  0.68252779  0.05787880  0.11520288    -0.06500
C1814       C  0.67998852  0.02062250  0.11305970    -0.17700
C1815       C  0.69497718  0.00229823  0.09180465     0.10700
C1816       C  0.71390099  0.02133145  0.07225729    -0.06500
C1817       C  0.71544415  0.05863552  0.07378412    -0.17700
C1818       C  0.69950344  0.07710636  0.09474182     0.10700
S1819       S  0.68772180  0.45380990  0.08918536    -0.32700
S1820       S  0.70129076  0.12502838  0.09396953    -0.32700
H1821       H  0.66800571  0.13003428  0.10619270     0.28700
H1822       H  0.68936813  0.45055550  0.06152272     0.28700
H1823       H  0.66714835  0.00530035  0.12851395     0.19300
H1824       H  0.72946173  0.07343132  0.05861401     0.19300
C1825       C  0.62540162  0.12589142  0.38157123    -0.06500
C1826       C  0.62918322  0.16228907  0.38718617    -0.17700
C1827       C  0.61777463  0.17649315  0.41122221     0.10700
C1828       C  0.60150503  0.15404480  0.43010549    -0.06500
C1829       C  0.59894335  0.11751307  0.42509480    -0.17700
C1830       C  0.61127810  0.10308193  0.40131170     0.10700
S1831       S  0.62295955  0.22382702  0.41603379    -0.32700
S1832       S  0.60879558  0.05542030  0.39781836    -0.32700
H1833       H  0.64202155  0.05231856  0.38515710     0.28700
H1834       H  0.62417336  0.22275674  0.44380778     0.28700
H1835       H  0.64025081  0.18010726  0.37246473     0.19300
H1836       H  0.58651054  0.10027351  0.43959319     0.19300
C1837       C  0.85471794  0.02235583  0.42848851    -0.06500
C1838       C  0.84400325  0.05673635  0.42125277    -0.17700
C1839       C  0.86093593  0.07530559  0.40077570     0.10700
C1840       C  0.88804884  0.05834590  0.38574824    -0.06500
C1841       C  0.89983218  0.02448636  0.39407845    -0.17700
C1842       C  0.88399222  0.00672352  0.41540434     0.10700
S1843       S  0.84686190  0.12065642  0.39557633    -0.32700
S1844       S  0.89545447  0.46580579  0.42627418    -0.32700
H1845       H  0.88655686  0.46852862  0.45319040     0.28700
H1846       H  0.88157329  0.13337873  0.39096764     0.28700
H1847       H  0.82229511  0.06931368  0.43183660     0.19300
H1848       H  0.92090879  0.01098375  0.38346132     0.19300
C1849       C  0.60436993  0.27783091  0.06911755    -0.06500
C1850       C  0.60571107  0.31458505  0.07363251    -0.17700
C1851       C  0.62122149  0.32809027  0.09665628     0.10700
C1852       C  0.63391309  0.30424599  0.11614333    -0.06500
C1853       C  0.63473554  0.26765860  0.11065967    -0.17700
C1854       C  0.62068444  0.25429641  0.08720021     0.10700
S1855       S  0.62475686  0.37572835  0.09971726    -0.32700
S1856       S  0.62279364  0.20681978  0.08202420    -0.32700
H1857       H  0.62332540  0.20841303  0.05424504     0.28700
H1858       H  0.65705645  0.37499071  0.11385211     0.28700
H1859       H  0.59405145  0.33272466  0.05937150     0.19300
H1860       H  0.64521781  0.24911293  0.12513879     0.19300
C1861       C  0.97356005  0.15256272  0.06793297    -0.06500
C1862       C  0.99842094  0.13585279  0.08452294    -0.17700
C1863       C  0.98915680  0.12428375  0.10982669     0.10700
C1864       C  0.95342043  0.12738485  0.11846791    -0.06500
C1865       C  0.92807787  0.14235628  0.10119314    -0.17700
C1866       C  0.93777896  0.15547414  0.07625398     0.10700
S1867       S  0.51827162  0.09487378  0.12308035    -0.32700
S1868       S  0.90337111  0.17655181  0.05676019    -0.32700
H1869       H  0.92514827  0.19606424  0.03952318     0.28700
H1870       H  0.01332093  0.12846588  0.15311688     0.28700
H1871       H  0.51909951  0.12834957  0.07368213     0.19300
H1872       H  0.90054527  0.14462153  0.10738705     0.19300
C1873       C  0.67928139  0.36223301  0.38601520    -0.06500
C1874       C  0.67123511  0.39842852  0.39036152    -0.17700
C1875       C  0.68653745  0.41749352  0.41116298     0.10700
C1876       C  0.71114211  0.40042119  0.42796393    -0.06500
C1877       C  0.71727527  0.36377021  0.42500847    -0.17700
C1878       C  0.70121091  0.34433567  0.40449181     0.10700
S1879       S  0.67444265  0.46377038  0.41455080    -0.32700
S1880       S  0.70845673  0.29686061  0.40258615    -0.32700
H1881       H  0.72557802  0.29314766  0.42718999     0.28700
H1882       H  0.68172522  0.46673058  0.44171014     0.28700
H1883       H  0.65390098  0.41264902  0.37686286     0.19300
H1884       H  0.73528206  0.35058686  0.43859092     0.19300
C1885       C  0.84333452  0.38986426  0.07163687    -0.06500
C1886       C  0.88006073  0.39533222  0.07463714    -0.17700
C1887       C  0.89895109  0.37989403  0.09563538     0.10700
C1888       C  0.88058469  0.35910208  0.11464872    -0.06500
C1889       C  0.84398451  0.35253639  0.11076328    -0.17700
C1890       C  0.82536901  0.36737658  0.08950093     0.10700
S1891       S  0.94630639  0.38760456  0.09669524    -0.32700
S1892       S  0.77842491  0.35772819  0.08681760    -0.32700
H1893       H  0.77667119  0.36012717  0.05910357     0.28700
H1894       H  0.95469167  0.35352824  0.10645339     0.28700
H1895       H  0.89402123  0.41213518  0.06063167     0.19300
H1896       H  0.82920473  0.33669410  0.12490329     0.19300
C1897       C  0.94414572  0.30729346  0.38592115    -0.06500
C1898       C  0.98016046  0.31200047  0.39250839    -0.17700
C1899       C  0.99377521  0.29943098  0.41638746     0.10700
C1900       C  0.97112672  0.28123080  0.43404461    -0.06500
C1901       C  0.93474533  0.27850085  0.42846518    -0.17700
C1902       C  0.92085406  0.29185279  0.40479627     0.10700
S1903       S  0.54336608  0.30458649  0.42018263    -0.32700
S1904       S  0.87338452  0.28826257  0.40008407    -0.32700
H1905       H  0.87006860  0.32113293  0.38694341     0.28700
H1906       H  0.54214571  0.30392609  0.44795703     0.28700
H1907       H  0.99830227  0.32414783  0.37849822     0.19300
H1908       H  0.91736211  0.26476461  0.44219904     0.19300
C1909       C  0.93303732  0.81678138  0.35789611     0.79800
N1910       N  0.94977503  0.84275600  0.34394724    -0.78500
C1911       C  0.94013235  0.84999202  0.31868537     0.82300
N1912       N  0.91353521  0.83118632  0.30719202    -0.78400
C1913       C  0.89716184  0.80463648  0.32071782     0.82400
N1914       N  0.90712744  0.79728033  0.34595625    -0.80200
C1915       C  0.89723610  0.84552310  0.13913504     0.79800
N1916       N  0.88125549  0.81906883  0.15312748    -0.78500
C1917       C  0.89137275  0.81182748  0.17828390     0.82300
N1918       N  0.91726720  0.83158367  0.18978680    -0.78400
C1919       C  0.93449530  0.85710039  0.17577704     0.82400
N1920       N  0.92394471  0.86456400  0.15064928    -0.80200
C1921       C  0.67073603  0.84736186  0.35979837     0.79800
N1922       N  0.69003355  0.82197288  0.34707445    -0.78500
C1923       C  0.68310911  0.81367677  0.32146201     0.82300
N1924       N  0.65757804  0.83185033  0.30806364    -0.78400
C1925       C  0.63728803  0.85633575  0.32076366     0.82400
N1926       N  0.64409259  0.86412212  0.34645000    -0.80200
C1927       C  0.93926600  0.61326945  0.14450690     0.79800
N1928       N  0.91149043  0.62976991  0.15652908    -0.78500
C1929       C  0.89966607  0.61844177  0.18048285     0.82300
N1930       N  0.91582613  0.59046397  0.19261717    -0.78400
C1931       C  0.94375037  0.57401190  0.18070375     0.82400
N1932       N  0.95503363  0.58527266  0.15668062    -0.80200
C1933       C  0.95848775  0.87798246  0.30398597     0.42000
N1934       N  0.49399132  0.92150788  0.29527479     0.00900
C1935       C  0.49475434  0.52574829  0.18308659    -0.06900
H1936       H  0.50655757  0.89453731  0.16238207     0.06400
C1937       C  0.62697198  0.89915096  0.21768192    -0.07300
Co1938     Co  0.97258818  0.96004906  0.24630297     0.74200
N1939       N  0.49945638  0.92400579  0.19876054    -0.26500
Co1940     Co  0.53954602  0.96276102  0.20035306     0.74100
C1941       C  0.61651791  0.88301687  0.19279317     0.42200
N1942       N  0.59853347  0.92200441  0.28013648     0.00600
N1943       N  0.57964346  0.92445115  0.20201691     0.00700
N1944       N  0.95112895  0.52691721  0.21520853    -0.47300
H1945       H  0.92442045  0.88913412  0.26702860     0.06400
N1946       N  0.97479179  0.92161718  0.21680286     0.00900
N1947       N  0.57890459  0.00194930  0.20327547     0.00700
C1948       C  0.61445428  0.54285193  0.19554060     0.42300
N1949       N  0.57326393  0.92180190  0.29825064    -0.25900
C1950       C  0.94738950  0.52553424  0.28193766    -0.06800
N1951       N  0.48779167  0.89596531  0.31270509    -0.47000
N1952       N  0.58644948  0.52434991  0.18598863    -0.47300
C1953       C  0.95697852  0.54043438  0.30745755     0.42100
N1954       N  0.97543858  0.99948773  0.21733803     0.00900
N1955       N  0.57230216  0.99921845  0.29935944    -0.25900
N1956       N  0.97104232  0.92082501  0.27546895    -0.26400
N1957       N  0.59801975  0.99998180  0.28161562     0.00600
H1958       H  0.56078720  0.53080060  0.33394514     0.06500
H1959       H  0.64759427  0.53188806  0.23291304     0.06500
N1960       N  0.49976088  0.00110386  0.19994201    -0.26500
N1961       N  0.60274473  0.92462242  0.22171823    -0.26100
N1962       N  0.49319551  0.99874297  0.29645947     0.00900
C1963       C  0.95903216  0.88087200  0.18968073     0.42300
C1964       C  0.58016304  0.89561379  0.31558486    -0.07400
N1965       N  0.60144126  0.00194493  0.22330819    -0.26100
H1966       H  0.64976539  0.89362865  0.23012116     0.06500
N1967       N  0.94996561  0.89746322  0.21226026    -0.47300
H1968       H  0.56496114  0.88979147  0.33322743     0.06500
C1969       C  0.60965558  0.54234875  0.30780433     0.42200
C1970       C  0.94734731  0.89466182  0.27931233    -0.06800
Co1971     Co  0.53313977  0.96026163  0.29795343     0.73800
N1972       N  0.62273818  0.89692172  0.28402515    -0.47000
C1973       C  0.96242285  0.54455998  0.19355329     0.42400
N1974       N  0.48546171  0.52140951  0.31593514    -0.47000
Co1975     Co  0.60085577  0.96211903  0.25175484     0.73900
C1976       C  0.62490754  0.52628663  0.22040317    -0.07400
C1977       C  0.49180907  0.89923608  0.18041056    -0.06900
N1978       N  0.97162667  0.99832930  0.27588275    -0.26400
N1979       N  0.58709337  0.89998106  0.18398198    -0.47200
H1980       H  0.51115707  0.53153076  0.16604405     0.06400
C1981       C  0.57746053  0.52466027  0.31712204    -0.07300
Cl1982     Cl  0.53628800  0.96152137  0.24914353    -0.50300
C1983       C  0.61263343  0.87876527  0.30576531     0.42200
H1984       H  0.92456853  0.53122540  0.26956648     0.06400
N1985       N  0.62112598  0.52465993  0.28622946    -0.47000
C1986       C  0.64415233  0.81883725  0.14140192     0.79800
N1987       N  0.62618420  0.84517650  0.15407917    -0.78500
C1988       C  0.63544269  0.85460502  0.17901512     0.82300
N1989       N  0.66233585  0.83731136  0.19146866    -0.78400
C1990       C  0.67974824  0.81039888  0.17924391     0.82400
N1991       N  0.67061433  0.80116626  0.15426285    -0.80200
C1992       C  0.89898789  0.57387758  0.36112290     0.79800
N1993       N  0.92580966  0.55624426  0.34846223    -0.78500
C1994       C  0.93365598  0.56373709  0.32281207     0.82300
N1995       N  0.91425771  0.58838934  0.30962086    -0.78400
C1996       C  0.88837370  0.60688596  0.32208637     0.82400
N1997       N  0.88034549  0.59910603  0.34758680    -0.80200
C1998       C  0.63559367  0.61205329  0.35575473     0.79800
N1999       N  0.61792266  0.58473457  0.34401944    -0.78500
C2000       C  0.62804049  0.57271106  0.31985324     0.82300
N2001       N  0.65566097  0.58849794  0.30709962    -0.78400
C2002       C  0.67288975  0.61642386  0.31832500     0.82400
N2003       N  0.66281457  0.62807601  0.34259722    -0.80200
C2004       C  0.66908363  0.57305085  0.13945438     0.79800
N2005       N  0.64345631  0.55642277  0.15383198    -0.78500
C2006       C  0.63763814  0.56526857  0.17939888     0.82300
N2007       N  0.65792834  0.59070462  0.19093341    -0.78400
C2008       C  0.68255447  0.60875481  0.17657613     0.82400
N2009       N  0.68864552  0.59939634  0.15097563    -0.80200
C2010       C  0.86964041  0.78807000  0.19449805     0.42000
N2011       N  0.82625061  0.75287819  0.20306619     0.00900
C2012       C  0.72274098  0.75631554  0.31701069    -0.06900
H2013       H  0.85633687  0.73639757  0.33483648     0.06400
C2014       C  0.84979727  0.62039282  0.28103960    -0.07300
Co2015     Co  0.78764728  0.77492422  0.25198551     0.74200
N2016       N  0.82502991  0.74635916  0.29969154    -0.26500
Co2017     Co  0.78563842  0.70740379  0.29855385     0.74100
C2018       C  0.86508192  0.62992704  0.30647332     0.42200
N2019       N  0.82543821  0.64825856  0.21823310     0.00600
N2020       N  0.82365913  0.66691306  0.29705641     0.00700
N2021       N  0.72402069  0.79838312  0.28498960    -0.47300
H2022       H  0.85958730  0.82087205  0.23206215     0.06400
N2023       N  0.82592550  0.77179285  0.28167514     0.00900
N2024       N  0.74621744  0.66847673  0.29600792     0.00700
C2025       C  0.70253929  0.63369065  0.30444107     0.42300
N2026       N  0.82535269  0.67402835  0.20046731    -0.25900
C2027       C  0.72428472  0.80156814  0.21811394    -0.06800
N2028       N  0.85075697  0.76027381  0.18502249    -0.47000
N2029       N  0.72043515  0.66244157  0.31332624    -0.47700
C2030       C  0.70783740  0.79120239  0.19328100     0.42100
N2031       N  0.74814288  0.77334484  0.28078298     0.00900
N2032       N  0.74818797  0.67366635  0.19938889    -0.25900
N2033       N  0.82694129  0.77526505  0.22312631    -0.26400
N2034       N  0.74742319  0.64867180  0.21775916     0.00600
H2035       H  0.71908205  0.68032642  0.16273052     0.06500
H2036       H  0.71368775  0.59946208  0.26764909     0.06500
N2037       N  0.74787813  0.74827312  0.29909143    -0.26500
N2038       N  0.82411062  0.64444473  0.27701245    -0.26100
N2039       N  0.74885205  0.75384677  0.20260960     0.00900
C2040       C  0.86850431  0.78454490  0.30806114     0.42300
C2041       C  0.85229347  0.66893935  0.18359410    -0.07400
N2042       N  0.74651092  0.64512663  0.27649525    -0.26100
H2043       H  0.85520880  0.59755675  0.26867460     0.06500
N2044       N  0.85153984  0.79523885  0.28596485    -0.47300
H2045       H  0.85863908  0.68555855  0.16676694     0.06500
C2046       C  0.70679016  0.63304358  0.19038933     0.42200
C2047       C  0.85376604  0.79821168  0.21962403    -0.06800
Co2048     Co  0.78699040  0.71367364  0.20078796     0.73800
N2049       N  0.85161209  0.62511403  0.21443471    -0.47000
C2050       C  0.70660355  0.78919735  0.30724507     0.42400
N2051       N  0.72436418  0.76152650  0.18459638    -0.47000
Co2052     Co  0.78589321  0.64597954  0.24733293     0.73900
C2053       C  0.71967797  0.62208432  0.28007933    -0.07400
C2054       C  0.85101039  0.75223160  0.31739948    -0.06900
N2055       N  0.74951965  0.77704745  0.22220276    -0.26400
N2056       N  0.84725086  0.65859629  0.31560337    -0.47200
H2057       H  0.71728699  0.74165011  0.33497369     0.06400
C2058       C  0.72363598  0.66576277  0.18088301    -0.07300
Cl2059     Cl  0.78643641  0.71048366  0.24966641    -0.50300
C2060       C  0.86960348  0.63667425  0.19296736     0.42200
H2061       H  0.71923058  0.82455722  0.23040322     0.06400
N2062       N  0.72314453  0.62399310  0.21311342    -0.47000
N2063       N  0.78610512  0.95807450  0.53741464    -0.37000
N2064       N  0.74533475  0.92097116  0.49720149    -0.57600
N2065       N  0.78417830  0.96114458  0.45660409    -0.37000
N2066       N  0.82834695  0.99452453  0.49735110    -0.57600
C2067       C  0.76986750  0.93272681  0.55205319     0.26600
C2068       C  0.81312666  0.97108107  0.55215438     0.26600
C2069       C  0.76553188  0.93822118  0.44123962     0.26600
C2070       C  0.80936382  0.97671102  0.44125161     0.26600
C2071       C  0.72679674  0.91032729  0.51869957     0.35200
C2072       C  0.72587667  0.91152807  0.47590284     0.35200
C2073       C  0.83413979  0.51507944  0.51992260     0.35200
C2074       C  0.83420633  0.51671010  0.47699208     0.35200
C2075       C  0.78675534  0.92960493  0.57634170    -0.22300
C2076       C  0.81405779  0.95380962  0.57640617    -0.22300
C2077       C  0.77868517  0.93965185  0.41563533    -0.22300
C2078       C  0.80613054  0.96393408  0.41561014    -0.22300
C2079       C  0.69559580  0.89360131  0.51109068    -0.23400
C2080       C  0.69505998  0.89422908  0.48391714    -0.23400
C2081       C  0.85392163  0.54461915  0.51282952    -0.23400
C2082       C  0.85436451  0.54543019  0.48562330    -0.23400
C2083       C  0.73852367  0.91430393  0.54503142    -0.18700
C2084       C  0.82907903  0.50274048  0.54605694    -0.18700
C2085       C  0.82868288  0.50716879  0.45014771    -0.18700
C2086       C  0.73611412  0.91697870  0.44929693    -0.18700
H2087       H  0.77976213  0.91209480  0.59253555     0.14200
H2088       H  0.83219197  0.95857392  0.59266600     0.14200
H2089       H  0.76933053  0.92491383  0.39861902     0.14200
H2090       H  0.82173256  0.97140402  0.39850596     0.14200
H2091       H  0.67550873  0.88195633  0.52376711     0.12500
H2092       H  0.67432922  0.88325808  0.47148145     0.12500
H2093       H  0.86730515  0.56312476  0.52585687     0.12500
H2094       H  0.86811591  0.56493536  0.47365034     0.12500
H2095       H  0.77743380  0.96800247  0.51939816     0.25700
H2096       H  0.77894228  0.96697188  0.47618087     0.25700
N2097       N  0.53492940  0.72047146  0.03852968    -0.37000
N2098       N  0.57494831  0.75883912  0.99850903    -0.57600
N2099       N  0.54004726  0.71594564  0.95830418    -0.37000
N2100       N  0.99538563  0.67965155  0.99896486    -0.57600
C2101       C  0.55005990  0.74649304  0.05302418     0.26600
C2102       C  0.50789690  0.70700482  0.05300404     0.26600
C2103       C  0.55515876  0.74159412  0.94313182     0.26600
C2104       C  0.51537506  0.69914685  0.94330727     0.26600
C2105       C  0.59335688  0.76921815  0.02007758     0.35200
C2106       C  0.59424861  0.76905992  0.97734696     0.35200
C2107       C  0.98560235  0.66117696  0.02069324     0.35200
C2108       C  0.98575348  0.65983307  0.97792575     0.35200
C2109       C  0.53243796  0.74978668  0.07698194    -0.22300
C2110       C  0.50573236  0.72485054  0.07696399    -0.22300
C2111       C  0.54022616  0.74059486  0.91803900    -0.22300
C2112       C  0.51504192  0.71404219  0.91820650    -0.22300
C2113       C  0.62432151  0.78656351  0.01267830    -0.23400
C2114       C  0.62468349  0.78687140  0.98552877    -0.23400
C2115       C  0.96905668  0.62972096  0.01351806    -0.23400
C2116       C  0.96920039  0.62881544  0.98633187    -0.23400
C2117       C  0.58146543  0.76484227  0.04627236    -0.18700
C2118       C  0.99014653  0.67332824  0.04682642    -0.18700
C2119       C  0.99040856  0.67015822  0.95127834    -0.18700
C2120       C  0.58346402  0.76441444  0.95083361    -0.18700
H2121       H  0.53875942  0.76770282  0.09305846     0.14200
H2122       H  0.48751836  0.71973993  0.09310222     0.14200
H2123       H  0.54693177  0.75697920  0.90116558     0.14200
H2124       H  0.49863693  0.70630118  0.90157659     0.14200
H2125       H  0.64421498  0.79831544  0.02546322     0.12500
H2126       H  0.64500463  0.79895594  0.97331483     0.12500
H2127       H  0.95796503  0.60966464  0.02649340     0.12500
H2128       H  0.95827967  0.60779947  0.97417166     0.12500
H2129       H  0.54471085  0.71032260  0.02091730     0.25700
H2130       H  0.54756298  0.70876612  0.97729571     0.25700
N2131       N  0.53513184  0.71602072  0.46170781    -0.37000
N2132       N  0.49735779  0.75542824  0.50235980    -0.57600
N2133       N  0.54271350  0.72098878  0.54191975    -0.37000
N2134       N  0.57696718  0.67842266  0.50084261    -0.57600
C2135       C  0.50709735  0.72922359  0.44817868     0.26600
C2136       C  0.54854291  0.68903274  0.44722736     0.26600
C2137       C  0.51835557  0.73748058  0.55746032     0.26600
C2138       C  0.55936133  0.69603274  0.55688417     0.26600
C2139       C  0.98888821  0.77541553  0.48094822     0.35200
C2140       C  0.99303519  0.77710781  0.52351652     0.35200
C2141       C  0.59392258  0.66709469  0.47882580     0.35200
C2142       C  0.59713789  0.66835102  0.52165709     0.35200
C2143       C  0.50238544  0.71026180  0.42493450    -0.22300
C2144       C  0.52864458  0.68481055  0.42432691    -0.22300
C2145       C  0.51989279  0.72325710  0.58271660    -0.22300
C2146       C  0.54584566  0.69742299  0.58243302    -0.22300
C2147       C  0.97396476  0.80743178  0.48869721    -0.23400
C2148       C  0.97654716  0.80850320  0.51580131    -0.23400
C2149       C  0.62497147  0.64944241  0.48558539    -0.23400
C2150       C  0.62682727  0.64985497  0.51276389    -0.23400
C2151       C  0.99060437  0.76283541  0.45480147    -0.18700
C2152       C  0.58027882  0.67054678  0.45292723    -0.18700
C2153       C  0.58739784  0.67307562  0.54849652    -0.18700
C2154       C  0.99900387  0.76643190  0.54987966    -0.18700
H2155       H  0.48271214  0.71499019  0.40967016     0.14200
H2156       H  0.53315316  0.66592652  0.40853201     0.14200
H2157       H  0.50422255  0.73096599  0.59973096     0.14200
H2158       H  0.55391460  0.68172979  0.59934449     0.14200
H2159       H  0.96230771  0.82770317  0.47616628     0.12500
H2160       H  0.96726851  0.82984508  0.52839634     0.12500
H2161       H  0.64379501  0.63681832  0.47238286     0.12500
H2162       H  0.64750543  0.63752327  0.52452302     0.12500
H2163       H  0.54654718  0.72707080  0.47850528     0.25700
H2164       H  0.54876721  0.72763273  0.52254942     0.25700
N2165       N  0.78093604  0.95906308  0.96251117    -0.37000
N2166       N  0.74293604  0.99892764  0.00305157    -0.57600
N2167       N  0.77849040  0.95553099  0.04313524    -0.37000
N2168       N  0.82060241  0.91977309  0.00235894    -0.57600
C2169       C  0.76632030  0.98555335  0.94800626     0.26600
C2170       C  0.80686190  0.94417551  0.94762234     0.26600
C2171       C  0.76323014  0.98102441  0.05827450     0.26600
C2172       C  0.80400300  0.93959620  0.05793508     0.26600
C2173       C  0.72447584  0.50791715  0.98040907     0.35200
C2174       C  0.72266618  0.50707811  0.02318818     0.35200
C2175       C  0.83109373  0.90155341  0.98068720     0.35200
C2176       C  0.83008461  0.89992666  0.02349629     0.35200
C2177       C  0.78309453  0.98745572  0.92361150    -0.22300
C2178       C  0.80867020  0.96137667  0.92337388    -0.22300
C2179       C  0.77908135  0.98108785  0.08306421    -0.22300
C2180       C  0.80473649  0.95495672  0.08286065    -0.22300
C2181       C  0.69300230  0.52452281  0.98758446    -0.23400
C2182       C  0.69184326  0.52400472  0.01476814    -0.23400
C2183       C  0.84770645  0.87015639  0.98804475    -0.23400
C2184       C  0.84706766  0.86910793  0.01523026    -0.23400
C2185       C  0.73688103  0.50387846  0.95426233    -0.18700
C2186       C  0.82710655  0.91377765  0.95444339    -0.18700
C2187       C  0.82523600  0.91020212  0.05013233    -0.18700
C2188       C  0.73289215  0.50220536  0.04983701    -0.18700
H2189       H  0.77712127  0.00540825  0.90744961     0.14200
H2190       H  0.82621646  0.95538122  0.90699745     0.14200
H2191       H  0.77260144  0.99798688  0.09969775     0.14200
H2192       H  0.82180381  0.94787875  0.09930508     0.14200
H2193       H  0.67307334  0.53589115  0.97460735     0.12500
H2194       H  0.67076856  0.53486236  0.02692300     0.12500
H2195       H  0.85913182  0.85018750  0.97518418     0.12500
H2196       H  0.85791273  0.84811234  0.02749936     0.12500
H2197       H  0.77189281  0.94992078  0.98064840     0.25700
H2198       H  0.77043241  0.94792149  0.02436518     0.25700
C2199       C  0.89069393  0.86215131  0.85803766     0.79800
N2200       N  0.87464740  0.83560644  0.84425967    -0.78500
C2201       C  0.88581620  0.82679740  0.81965789     0.82300
N2202       N  0.91340113  0.84472368  0.80856167    -0.78400
C2203       C  0.92935311  0.87179167  0.82185937     0.82400
N2204       N  0.91780775  0.88059658  0.84652050    -0.80200
C2205       C  0.92590350  0.60215193  0.86100269     0.79800
N2206       N  0.94334246  0.57589353  0.84772396    -0.78500
C2207       C  0.93518877  0.56870107  0.82216313     0.82300
N2208       N  0.91013295  0.58825936  0.80963664    -0.78400
C2209       C  0.89177394  0.61365545  0.82274607     0.82400
N2210       N  0.90007530  0.62108192  0.84829844    -0.80200
C2211       C  0.68596624  0.56550190  0.85716658     0.79800
N2212       N  0.70431917  0.59276780  0.84577311    -0.78500
C2213       C  0.69563992  0.60425124  0.82105275     0.82300
N2214       N  0.66881990  0.58812201  0.80761646    -0.78400
C2215       C  0.65102031  0.56042629  0.81862266     0.82400
N2216       N  0.65965783  0.54927755  0.84326719    -0.80200
C2217       C  0.65174993  0.82984524  0.86071475     0.79800
N2218       N  0.63384604  0.85600111  0.84764514    -0.78500
C2219       C  0.64090572  0.86320233  0.82188764     0.82300
N2220       N  0.66586590  0.84387644  0.80884588    -0.78400
C2221       C  0.68512441  0.81887740  0.82195314     0.82400
N2222       N  0.67745925  0.81148941  0.84759013    -0.80200
C2223       C  0.65257487  0.60290095  0.63827447     0.79800
N2224       N  0.63505033  0.57574489  0.65055079    -0.78500
C2225       C  0.64213293  0.56745982  0.67616965     0.82300
N2226       N  0.66640675  0.58682309  0.68981261    -0.78400
C2227       C  0.68501411  0.61305853  0.67768350     0.82400
N2228       N  0.67754845  0.62147447  0.65213396    -0.80200
C2229       C  0.88430553  0.56329567  0.64335015     0.79800
N2230       N  0.91212540  0.54662775  0.65537645    -0.78500
C2231       C  0.92460651  0.55833158  0.67910488     0.82300
N2232       N  0.90913234  0.58683998  0.69095412    -0.78400
C2233       C  0.88132789  0.60358899  0.67911120     0.82400
N2234       N  0.86928275  0.59191071  0.65533632    -0.80200
C2235       C  0.86767856  0.79825100  0.80520023     0.42000
N2236       N  0.83152214  0.75585863  0.79635269     0.00900
C2237       C  0.83072480  0.65072079  0.68321862    -0.06900
H2238       H  0.82044757  0.78285061  0.66331432     0.06400
C2239       C  0.69972322  0.78019563  0.71906701    -0.07300
Co2240     Co  0.85367396  0.71567931  0.74781474     0.74200
N2241       N  0.82662155  0.75369647  0.69996941    -0.26500
Co2242     Co  0.78599911  0.71560249  0.70117129     0.74100
C2243       C  0.71079034  0.79717983  0.69455715     0.42200
N2244       N  0.72630713  0.75474352  0.78114896     0.00600
N2245       N  0.74655340  0.75445778  0.70316652     0.00700
N2246       N  0.87460534  0.65057217  0.71403721    -0.47300
H2247       H  0.90195830  0.78640387  0.76854016     0.06400
N2248       N  0.85163031  0.75406292  0.71832933     0.00900
N2249       N  0.74582930  0.67705297  0.70301033     0.00700
C2250       C  0.70855144  0.63577839  0.69352977     0.42300
N2251       N  0.75139401  0.75509444  0.79943437    -0.25900
C2252       C  0.87843518  0.65203878  0.78179823    -0.06800
N2253       N  0.83829951  0.78114677  0.81386565    -0.47000
N2254       N  0.73723604  0.65369678  0.68439240    -0.47300
C2255       C  0.86896559  0.63738431  0.80742881     0.42100
N2256       N  0.85109754  0.67626316  0.71850231     0.00900
N2257       N  0.75272707  0.67784910  0.80028359    -0.25900
N2258       N  0.85505335  0.75505690  0.77693836    -0.26400
N2259       N  0.72729588  0.67683694  0.78224054     0.00600
H2260       H  0.76308228  0.64643935  0.83531999     0.06500
H2261       H  0.67642121  0.64558709  0.73146754     0.06500
N2262       N  0.82530562  0.67681378  0.70072292    -0.26500
N2263       N  0.72326076  0.75393446  0.72273138    -0.26100
N2264       N  0.83217907  0.67871530  0.79774698     0.00900
C2265       C  0.86787229  0.79438812  0.69100023     0.42300
C2266       C  0.74326878  0.78031825  0.81726611    -0.07400
N2267       N  0.72351182  0.67643711  0.72316656    -0.26100
H2268       H  0.67700569  0.78582952  0.73152142     0.06500
N2269       N  0.87672888  0.77790770  0.71369833    -0.47300
H2270       H  0.75782627  0.78577473  0.83527387     0.06500
C2271       C  0.71479520  0.63406867  0.80874328     0.42200
C2272       C  0.87891301  0.78112740  0.78075206    -0.06800
Co2273     Co  0.79202462  0.71699534  0.79902261     0.73800
N2274       N  0.70119324  0.77880123  0.78529592    -0.47000
C2275       C  0.86327668  0.63344816  0.69209687     0.42400
N2276       N  0.84044927  0.65546242  0.81653713    -0.47000
Co2277     Co  0.72454730  0.71535995  0.75236498     0.73900
C2278       C  0.69937406  0.65080474  0.71914449    -0.07400
C2279       C  0.83490942  0.77809566  0.68148306    -0.06900
N2280       N  0.85453686  0.67773753  0.77761221    -0.26400
N2281       N  0.73984859  0.77981187  0.68558065    -0.47200
H2282       H  0.81437721  0.64520179  0.66608968     0.06400
C2283       C  0.74702677  0.65181491  0.81800093    -0.07300
Cl2284     Cl  0.78907262  0.71590310  0.75009694    -0.50300
C2285       C  0.71027472  0.79636054  0.80747511     0.42200
H2286       H  0.90124744  0.64635507  0.76944676     0.06400
N2287       N  0.70401043  0.65101232  0.78658274    -0.47000
C2288       C  0.92853043  0.82999076  0.63975041     0.79800
N2289       N  0.90213930  0.81087199  0.65159666    -0.78500
C2290       C  0.89258172  0.81786653  0.67699262     0.82300
N2291       N  0.91047921  0.84296473  0.69092390    -0.78400
C2292       C  0.93600792  0.86285545  0.67910060     0.82400
N2293       N  0.94509637  0.85613621  0.65367490    -0.80200
C2294       C  0.68152399  0.86048506  0.64260643     0.79800
N2295       N  0.70051297  0.83497998  0.65557857    -0.78500
C2296       C  0.69167111  0.82556827  0.68067405     0.82300
N2297       N  0.66414432  0.84200778  0.69294609    -0.78400
C2298       C  0.64568899  0.86803995  0.68047526     0.82400
N2299       N  0.65440653  0.87724702  0.65537042    -0.80200
C2300       C  0.95794365  0.88680909  0.69499984     0.42000
N2301       N  0.00004820  0.92351601  0.70354236     0.00900
C2302       C  0.60149049  0.92043391  0.81702032    -0.06900
H2303       H  0.97010906  0.94040329  0.83542226     0.06400
C2304       C  0.97322950  0.55531346  0.78101972    -0.07300
Co2305     Co  0.53571522  0.90102409  0.75257888     0.74200
N2306       N  0.00128396  0.93054893  0.80023346    -0.26500
Co2307     Co  0.53803927  0.96867967  0.79882853     0.74100
C2308       C  0.95803870  0.54557901  0.80645522     0.42200
N2309       N  0.99786623  0.52797190  0.71802521     0.00600
N2310       N  0.99968864  0.50900029  0.79711409     0.00700
N2311       N  0.59992067  0.87802754  0.78535559    -0.47300
H2312       H  0.96886898  0.85453739  0.73275330     0.06400
N2313       N  0.00080718  0.90484483  0.78248557     0.00900
N2314       N  0.57858706  0.50809771  0.79579458     0.00700
C2315       C  0.62227237  0.54272891  0.80422918     0.42300
N2316       N  0.99809503  0.50209362  0.70039662    -0.25900
C2317       C  0.59986887  0.87506691  0.71890109    -0.06800
N2318       N  0.97592921  0.91516417  0.68542814    -0.47000
N2319       N  0.60429007  0.51406005  0.81316095    -0.47300
C2320       C  0.61648491  0.88595279  0.69418995     0.42100
N2321       N  0.57539256  0.90272771  0.78127094     0.00900
N2322       N  0.57684471  0.50299668  0.69949080    -0.25900
N2323       N  0.99991143  0.90123287  0.72373897    -0.26400
N2324       N  0.57778200  0.52802264  0.71776428     0.00600
H2325       H  0.60618154  0.49570179  0.66308336     0.06500
H2326       H  0.61133595  0.57709813  0.76743596     0.06500
N2327       N  0.57579220  0.92793778  0.79940493    -0.26500
N2328       N  0.99907584  0.53147526  0.77702433    -0.26100
N2329       N  0.57425821  0.92207276  0.70308658     0.00900
C2330       C  0.95867742  0.89149486  0.80931292     0.42300
C2331       C  0.97160639  0.50732092  0.68308943    -0.07400
N2332       N  0.57841686  0.53148784  0.77627731    -0.26100
H2333       H  0.96767352  0.57816115  0.76865241     0.06500
N2334       N  0.97569984  0.88090222  0.78717870    -0.47300
H2335       H  0.96565917  0.49075419  0.66618002     0.06500
C2336       C  0.61899742  0.54285074  0.69063787     0.42200
C2337       C  0.97392416  0.87735637  0.72025143    -0.06800
Co2338     Co  0.53622083  0.96218729  0.70116540     0.73800
N2339       N  0.97201956  0.55134919  0.71367197    -0.47000
C2340       C  0.61784696  0.88770321  0.80728226     0.42400
N2341       N  0.59926867  0.91514910  0.68535557    -0.47000
Co2342     Co  0.53917398  0.53103335  0.74714865     0.73900
C2343       C  0.60531332  0.55442154  0.77983886    -0.07400
C2344       C  0.97560077  0.92437841  0.81814531    -0.06900
N2345       N  0.57387853  0.89890409  0.72273991    -0.26400
N2346       N  0.97610299  0.51710779  0.81564915    -0.47200
H2347       H  0.60730682  0.93544855  0.83473666     0.06400
C2348       C  0.60169851  0.51040992  0.68114879    -0.07300
Cl2349     Cl  0.53701253  0.96548650  0.74998922    -0.50300
C2350       C  0.95440472  0.53985795  0.69197243     0.42200
H2351       H  0.60561168  0.85240796  0.73140746     0.06400
N2352       N  0.60245713  0.55232912  0.71316873    -0.47000
C2353       C  0.71725768  0.52081602  0.93207153    -0.06500
C2354       C  0.72065178  0.55756172  0.92798996    -0.17700
C2355       C  0.70929941  0.57340719  0.90423434     0.10700
C2356       C  0.69539416  0.55169522  0.88381296    -0.06500
C2357       C  0.69007563  0.51525150  0.88881633    -0.17700
C2358       C  0.70022437  0.49982183  0.91275738     0.10700
S2359       S  0.71180859  0.62120238  0.90073488    -0.32700
S2360       S  0.68813348  0.95583923  0.92024237    -0.32700
H2361       H  0.68650757  0.95791671  0.94797830     0.28700
H2362       H  0.72460567  0.62847724  0.92631200     0.28700
H2363       H  0.73335370  0.57352372  0.94310081     0.19300
H2364       H  0.67862575  0.49829440  0.87372720     0.19300
C2365       C  0.84464359  0.89426013  0.93241561    -0.06500
C2366       C  0.88137526  0.89845576  0.92841761    -0.17700
C2367       C  0.89768869  0.88706067  0.90485177     0.10700
C2368       C  0.87650338  0.87202415  0.88452715    -0.06500
C2369       C  0.84011142  0.86603254  0.88945251    -0.17700
C2370       C  0.82419836  0.87645468  0.91314394     0.10700
S2371       S  0.94538976  0.89141623  0.90143263    -0.32700
S2372       S  0.77719643  0.86793500  0.91711995    -0.32700
H2373       H  0.77792238  0.86575084  0.94487678     0.28700
H2374       H  0.95250770  0.89991754  0.92800452     0.28700
H2375       H  0.89695375  0.91195450  0.94337795     0.19300
H2376       H  0.82350271  0.85386148  0.87445143     0.19300
C2377       C  0.60602579  0.65114695  0.56892348    -0.06500
C2378       C  0.64100589  0.65984481  0.57624479    -0.17700
C2379       C  0.65846148  0.64166791  0.59675580     0.10700
C2380       C  0.63958261  0.61625981  0.61207864    -0.06500
C2381       C  0.60526247  0.60624954  0.60356163    -0.17700
C2382       C  0.58892838  0.62246977  0.58176422     0.10700
S2383       S  0.70512145  0.65103160  0.60138939    -0.32700
S2384       S  0.54553398  0.60637941  0.57206261    -0.32700
H2385       H  0.54779192  0.61658967  0.54537359     0.28700
H2386       H  0.71408097  0.61573223  0.60799764     0.28700
H2387       H  0.65494964  0.68070826  0.56566789     0.19300
H2388       H  0.59042966  0.58617151  0.61427607     0.19300
C2389       C  0.94437599  0.81792909  0.61432475    -0.06500
C2390       C  0.98125858  0.82284009  0.61066730    -0.17700
C2391       C  0.99921266  0.80787535  0.58921174     0.10700
C2392       C  0.98042228  0.78634548  0.57121070    -0.06500
C2393       C  0.94338883  0.78269408  0.57393403    -0.17700
C2394       C  0.92508751  0.79878618  0.59492146     0.10700
S2395       S  0.54268511  0.81821692  0.58556654    -0.32700
S2396       S  0.87727469  0.79451926  0.59535521    -0.32700
H2397       H  0.87113780  0.82843306  0.60621167     0.28700
H2398       H  0.54427444  0.81474226  0.55791912     0.28700
H2399       H  0.99667684  0.83768389  0.62501396     0.19300
H2400       H  0.92869235  0.76702877  0.55963682     0.19300
C2401       C  0.60273285  0.78466242  0.92998813    -0.06500
C2402       C  0.63658186  0.77296906  0.92223339    -0.17700
C2403       C  0.65511872  0.78965557  0.90166613     0.10700
C2404       C  0.63840713  0.81724627  0.88696353    -0.06500
C2405       C  0.60524929  0.83013039  0.89595612    -0.17700
C2406       C  0.58775863  0.81475158  0.91753783     0.10700
S2407       S  0.70010188  0.77475089  0.89596440    -0.32700
S2408       S  0.54560133  0.83367980  0.92737480    -0.32700
H2409       H  0.54763395  0.82358088  0.95409852     0.28700
H2410       H  0.71339954  0.80921638  0.89130138     0.28700
H2411       H  0.64878497  0.75075097  0.93250523     0.19300
H2412       H  0.59207955  0.85177571  0.88571287     0.19300
C2413       C  0.94061618  0.61514134  0.88649213    -0.06500
C2414       C  0.97768161  0.61294692  0.89030189    -0.17700
C2415       C  0.99424471  0.62899636  0.91192256     0.10700
C2416       C  0.97354838  0.64828373  0.93024020    -0.06500
C2417       C  0.93637877  0.64905086  0.92736941    -0.17700
C2418       C  0.91962467  0.63245250  0.90581644     0.10700
S2419       S  0.04209384  0.62528626  0.91431392    -0.32700
S2420       S  0.87163655  0.63354583  0.90343543    -0.32700
H2421       H  0.86531131  0.64519455  0.92944701     0.28700
H2422       H  0.04399775  0.62806789  0.94199736     0.28700
H2423       H  0.99427040  0.59975491  0.87578252     0.19300
H2424       H  0.92064112  0.66366073  0.94164203     0.19300
C2425       C  0.84516084  0.52192092  0.56894475    -0.06500
C2426       C  0.82184449  0.53904947  0.58646583    -0.17700
C2427       C  0.83356950  0.55220605  0.61082419     0.10700
C2428       C  0.87014973  0.54992867  0.61765575    -0.06500
C2429       C  0.89372816  0.53384787  0.59958717    -0.17700
C2430       C  0.88156732  0.51923905  0.57567613     0.10700
S2431       S  0.79966391  0.56836318  0.63303758    -0.32700
S2432       S  0.91771065  0.98672288  0.56006266    -0.32700
H2433       H  0.89383659  0.96672868  0.54475505     0.28700
H2434       H  0.81332481  0.55030668  0.65524075     0.28700
H2435       H  0.79368641  0.54023120  0.58176184     0.19300
H2436       H  0.92177548  0.53178789  0.60441448     0.19300
C2437       C  0.71725602  0.89904800  0.56703091    -0.06500
C2438       C  0.72090636  0.86282238  0.57304723    -0.17700
C2439       C  0.70774523  0.84885089  0.59681549     0.10700
C2440       C  0.69145693  0.87184671  0.61545553    -0.06500
C2441       C  0.68598497  0.90766425  0.60849706    -0.17700
C2442       C  0.69844787  0.92138164  0.58456276     0.10700
S2443       S  0.71242094  0.80159497  0.60187810    -0.32700
S2444       S  0.69172574  0.96823095  0.57838113    -0.32700
H2445       H  0.69310086  0.96618065  0.55065176     0.28700
H2446       H  0.67925481  0.79759996  0.61448662     0.28700
H2447       H  0.73514383  0.84559003  0.55951649     0.19300
H2448       H  0.67315121  0.92564643  0.62225606     0.19300
C2449       C  0.68059251  0.55683200  0.11404731    -0.06500
C2450       C  0.67786406  0.51961134  0.11152352    -0.17700
C2451       C  0.69296967  0.50154033  0.09017848     0.10700
C2452       C  0.71225556  0.52072551  0.07093153    -0.06500
C2453       C  0.71350364  0.55804539  0.07256988    -0.17700
C2454       C  0.69732335  0.57629282  0.09358453     0.10700
S2455       S  0.69000685  0.95451350  0.09132260    -0.32700
S2456       S  0.69829415  0.62422930  0.09284511    -0.32700
H2457       H  0.66506705  0.62861602  0.10529148     0.28700
H2458       H  0.69099157  0.95089576  0.06366815     0.28700
H2459       H  0.66488943  0.50406673  0.12678778     0.19300
H2460       H  0.72750821  0.57301462  0.05748945     0.19300
C2461       C  0.62468265  0.62532941  0.38221375    -0.06500
C2462       C  0.62859563  0.66181997  0.38754393    -0.17700
C2463       C  0.61659850  0.67663085  0.41125786     0.10700
C2464       C  0.59965777  0.65477169  0.43017718    -0.06500
C2465       C  0.59681733  0.61816653  0.42546343    -0.17700
C2466       C  0.60962628  0.60311544  0.40197665     0.10700
S2467       S  0.62220664  0.72394872  0.41573461    -0.32700
S2468       S  0.60654198  0.55543776  0.39890467    -0.32700
H2469       H  0.64008872  0.55160628  0.38683444     0.28700
H2470       H  0.62439741  0.72293071  0.44347983     0.28700
H2471       H  0.64031037  0.67925197  0.37284723     0.19300
H2472       H  0.58391145  0.60133102  0.43999388     0.19300
C2473       C  0.85032265  0.52584686  0.42964629    -0.06500
C2474       C  0.84091924  0.56056981  0.42230857    -0.17700
C2475       C  0.85893283  0.57851541  0.40202750     0.10700
C2476       C  0.88549272  0.56050102  0.38715275    -0.06500
C2477       C  0.89607933  0.52634647  0.39566096    -0.17700
C2478       C  0.87941725  0.50931102  0.41696685     0.10700
S2479       S  0.84717685  0.62453359  0.39692251    -0.32700
S2480       S  0.90128920  0.96342182  0.42403664    -0.32700
H2481       H  0.89086529  0.96398912  0.45070788     0.28700
H2482       H  0.88229293  0.63537839  0.39143955     0.28700
H2483       H  0.81948485  0.57391285  0.43267809     0.19300
H2484       H  0.91681647  0.51210077  0.38521237     0.19300
C2485       C  0.60293176  0.77933240  0.06824635    -0.06500
C2486       C  0.60217430  0.81599912  0.07306815    -0.17700
C2487       C  0.61745892  0.83015932  0.09595730     0.10700
C2488       C  0.63284606  0.80694830  0.11487973    -0.06500
C2489       C  0.63519010  0.77046433  0.10917443    -0.17700
C2490       C  0.62065798  0.75647326  0.08607502     0.10700
S2491       S  0.61670185  0.87787275  0.09954197    -0.32700
S2492       S  0.62374756  0.70894017  0.08131561    -0.32700
H2493       H  0.62183531  0.70955670  0.05356186     0.28700
H2494       H  0.65020547  0.87987628  0.11194145     0.28700
H2495       H  0.58889559  0.83354474  0.05917732     0.19300
H2496       H  0.64716186  0.75233504  0.12330001     0.19300
C2497       C  0.97480454  0.65298415  0.06919472    -0.06500
C2498       C  0.99889889  0.63578687  0.08608023    -0.17700
C2499       C  0.98836265  0.62312569  0.11077625     0.10700
C2500       C  0.95216659  0.62579658  0.11843028    -0.06500
C2501       C  0.92761269  0.64116143  0.10072669    -0.17700
C2502       C  0.93856824  0.65524559  0.07640412     0.10700
S2503       S  0.52144981  0.59698797  0.12519798    -0.32700
S2504       S  0.90516746  0.67643487  0.05605599    -0.32700
H2505       H  0.92775200  0.69997304  0.04252255     0.28700
H2506       H  0.01115373  0.62651995  0.15443013     0.28700
H2507       H  0.52230706  0.62903564  0.07516298     0.19300
H2508       H  0.89975100  0.64303163  0.10613555     0.19300
C2509       C  0.68317620  0.86210605  0.38561104    -0.06500
C2510       C  0.67372152  0.89741315  0.39194989    -0.17700
C2511       C  0.68933286  0.91541678  0.41316616     0.10700
C2512       C  0.71546301  0.89810227  0.42850498    -0.06500
C2513       C  0.72327673  0.86224964  0.42355470    -0.17700
C2514       C  0.70716968  0.84384302  0.40254904     0.10700
S2515       S  0.67580122  0.96090409  0.41878685    -0.32700
S2516       S  0.71734359  0.79716827  0.39814530    -0.32700
H2517       H  0.73933092  0.79318751  0.42048589     0.28700
H2518       H  0.68524497  0.96269073  0.44562274     0.28700
H2519       H  0.65500291  0.91189104  0.37968212     0.19300
H2520       H  0.74270244  0.84897189  0.43595249     0.19300
C2521       C  0.84398183  0.88967948  0.07116604    -0.06500
C2522       C  0.88118792  0.89223707  0.07318122    -0.17700
C2523       C  0.89972031  0.87604266  0.09405432     0.10700
C2524       C  0.88060345  0.85790798  0.11406038    -0.06500
C2525       C  0.84344183  0.85426312  0.11130492    -0.17700
C2526       C  0.82512820  0.86938955  0.09000980     0.10700
S2527       S  0.94762994  0.87884485  0.09362239    -0.32700
S2528       S  0.77755581  0.86271703  0.08842675    -0.32700
H2529       H  0.77484107  0.86468697  0.06073382     0.28700
H2530       H  0.95308693  0.84490953  0.10471077     0.28700
H2531       H  0.89585234  0.90720258  0.05844562     0.19300
H2532       H  0.82816724  0.84035260  0.12625932     0.19300
C2533       C  0.94518431  0.80824913  0.38507125    -0.06500
C2534       C  0.98122228  0.81408618  0.39122047    -0.17700
C2535       C  0.99579863  0.80229165  0.41502194     0.10700
C2536       C  0.97420778  0.78360836  0.43310395    -0.06500
C2537       C  0.93772532  0.77983939  0.42801660    -0.17700
C2538       C  0.92281618  0.79261026  0.40444354     0.10700
S2539       S  0.54305747  0.80457767  0.42019920    -0.32700
S2540       S  0.87527332  0.78843985  0.40055778    -0.32700
H2541       H  0.87120791  0.82109308  0.38722954     0.28700
H2542       H  0.54133812  0.80500290  0.44795873     0.28700
H2543       H  0.99871101  0.82660204  0.37693780     0.19300
H2544       H  0.92105006  0.76588692  0.44210647     0.19300
loop_ 
_geom_bond_atom_site_label_1 
_geom_bond_atom_site_label_2 
_geom_bond_distance 
_geom_bond_site_symmetry_2 
_ccdc_geom_bond_type 
C1            N2   1.359       .  A
C1            N6   1.359       .  A
C1          C625   1.483       .  S
N2            C3   1.356       .  A
C3            N4   1.355       .  A
C3           C25   1.461       .  S
N4            C5   1.356       .  A
C5            N6   1.357       .  A
C5          C132   1.460       .  S
C7            N8   1.363       .  A
C7           N12   1.361       .  A
C7          C616   1.489       .  S
N8            C9   1.358       .  A
C9           N10   1.354       .  A
C9          C102   1.463       .  S
N10          C11   1.354       .  A
C11          N12   1.357       .  A
C11          C55   1.459       .  S
C13          N14   1.361       .  A
C13          N18   1.360       .  A
C13         C601   1.493       .  S
N14          C15   1.358       .  A
C15          N16   1.355       .  A
C15         C142   1.463       .  S
N16          C17   1.355       .  A
C17          N18   1.356       .  A
C17          C75   1.459       .  S
C19          N20   1.357       .  A
C19          N24   1.357       .  A
C19         C592   1.491       .  S
N20          C21   1.357       .  A
C21          N22   1.358       .  A
C21         C152   1.462       .  S
N22          C23   1.358       .  A
C23          N24   1.357       .  A
C23          C65   1.465       .  S
C25        N1315   1.347       .  A
C25          C62   1.457       .  S
N26          N43   1.323       .  A
N26        N1320   1.320       .  A
N26         Co63   2.075   1_655  S
C27         N688   1.339   1_645  A
C27        C1337   1.458       .  S
C27          H72   1.082   1_655  S
H28          C69   1.082   1_455  S
C29          N53   1.336       .  A
C29          C33   1.453       .  S
C29          H58   1.082       .  S
Co30         N48   2.085       .  S
Co30         N38   2.078       .  S
Co30         N70   2.081       .  S
Co30         N46   2.089       .  S
Co30      Cl1346   2.426       .  S
N31          C69   1.344       .  A
N31        N1310   1.320       .  A
N31         Co32   2.086   1_655  S
Co32         N35   2.080       .  S
Co32         N52   2.075       .  S
Co32         N39   2.089       .  S
Co32        Cl74   2.473       .  S
C33          N71   1.349       .  A
C33          C80   1.459       .  S
N34          N41   1.319       .  A
N34          N64   1.322       .  A
N34         Co67   2.079       .  S
N35          N53   1.321       .  A
N35          N71   1.326       .  A
N36          C65   1.350       .  A
N36         N682   1.326       .  A
H37          C62   1.082       .  S
N38          N59   1.321       .  A
N38        N1303   1.320       .  A
N39          N57   1.320       .  A
N39         N680   1.326       .  A
C40          N44   1.351       .  A
C40          C68   1.454       .  S
C40          C98   1.460       .  S
N41          C56   1.342       .  A
N41         Co63   2.083       .  S
C42         N706   1.336   1_545  A
C42          C45   1.454       .  S
C42          H76   1.082       .  S
N43        C1297   1.347       .  A
N44         N675   1.325   1_545  A
C45        N1338   1.350       .  A
C45          C86   1.460       .  S
N46         N672   1.325       .  A
N46        N1324   1.320       .  A
N47         C709   1.339       .  A
N47          N49   1.320       .  A
N47         Co63   2.076       .  S
N48          C62   1.341       .  A
N48        N1298   1.320       .  A
N49         N713   1.324       .  A
N49         Co67   2.085       .  S
H50          C73   1.082       .  S
H51          C68   1.082       .  S
N52         C663   1.337   1_455  A
N52        N1318   1.321   1_455  A
N53         Co67   2.078       .  S
N54         N702   1.328       .  A
N54        N1342   1.320       .  A
N54         Co63   2.086   1_655  S
C55          N59   1.345       .  A
C55        C1341   1.460       .  S
C56          C75   1.460       .  S
C56          H60   1.082       .  S
N57         C704   1.338       .  A
N57         Co67   2.077       .  S
C61          N77   1.349       .  A
C61          C73   1.455       .  S
C61          C92   1.463       .  S
Co63        Cl74   2.473       .  S
N64          C75   1.347       .  A
C65        C1299   1.456       .  S
N66        C1317   1.350       .  A
N66         N690   1.327   1_545  A
Co67        Cl74   2.426       .  S
C68         N693   1.338   1_545  A
C69        C1327   1.459       .  S
N70         C678   1.336       .  A
N70        N1326   1.320       .  A
C73         N683   1.339   1_545  A
Cl74      Co1302   2.424   1_455  S
N77         N685   1.325   1_545  A
C78          N79   1.360       .  A
C78          N83   1.361       .  A
C78         C580   1.479       .  S
N79          C80   1.356       .  A
C80          N81   1.353       .  A
N81          C82   1.352       .  A
C82          N83   1.356       .  A
C82         C122   1.460       .  S
C84          N85   1.363       .  A
C84          N89   1.362       .  A
C84         C568   1.496       .  S
N85          C86   1.356       .  A
C86          N87   1.353       .  A
N87          C88   1.353       .  A
C88          N89   1.357       .  A
C88         C110   1.461       .  S
C90          N91   1.358       .  A
C90          N95   1.359       .  A
C90         C553   1.482       .  S
N91          C92   1.357       .  A
C92          N93   1.357       .  A
N93          C94   1.357       .  A
C94          N95   1.357       .  A
C94         C117   1.464       .  S
C96          N97   1.358       .  A
C96         N101   1.362       .  A
C96         C541   1.483       .  S
N97          C98   1.352       .  A
C98          N99   1.356       .  A
N99         C100   1.357       .  A
C100        N101   1.359       .  A
C100        C138   1.463       .  S
C102        N120   1.349       .  A
C102        C139   1.456       .  S
N103        N120   1.326       .  A
N103        N125   1.319       .  A
N103       Co140   2.083       .  S
C104        N129   1.343       .  A
C104        C142   1.460       .  S
C104        H149   1.082       .  S
H105        C146   1.082       .  S
C106        N130   1.335       .  A
C106        C110   1.450       .  S
C106        H135   1.082       .  S
Co107       N125   2.079       .  S
Co107       N115   2.085       .  S
Co107       N147   2.084       .  S
Co107       N123   2.081       .  S
Co107      Cl151   2.424       .  S
N108        C146   1.340       .  A
N108        N115   1.321       .  A
N108       Co109   2.077       .  S
Co109       N112   2.092       .  S
Co109       N129   2.087       .  S
Co109       N116   2.083       .  S
Co109      Cl151   2.475       .  S
C110        N148   1.352       .  A
N111        N118   1.320       .  A
N111        N141   1.326       .  A
N111       Co144   2.091       .  S
N112        N130   1.319       .  A
N112        N148   1.328       .  A
N113        C142   1.347       .  A
N113        N123   1.323       .  A
H114        C139   1.082       .  S
N115        N136   1.323       .  A
N116        N134   1.321       .  A
N116        N121   1.325       .  A
C117        N121   1.349       .  A
C117        C145   1.456       .  S
N118        C133   1.336       .  A
N118       Co140   2.071       .  S
C119        N147   1.337       .  A
C119        C122   1.454       .  S
C119        H153   1.082       .  S
C122        N143   1.349       .  A
N123        N129   1.320       .  A
N124        C150   1.345       .  A
N124        N126   1.319       .  A
N124       Co140   2.090       .  S
N125        C139   1.338       .  A
N126        N154   1.322       .  A
N126       Co144   2.074       .  S
H127        C150   1.082       .  S
H128        C145   1.082       .  S
N130       Co144   2.069       .  S
N131        N143   1.325       .  A
N131        N147   1.321       .  A
N131       Co140   2.078       .  S
C132        N136   1.347       .  A
C132        C146   1.457       .  S
C133        C152   1.454       .  S
C133        H137   1.082       .  S
N134        C145   1.340       .  A
N134       Co144   2.086       .  S
C138        N154   1.345       .  A
C138        C150   1.462       .  S
Co140      Cl151   2.472       .  S
N141        C152   1.350       .  A
Co144      Cl151   2.426       .  S
N155        C160   1.351       .  A
N155        C159   1.351       .  A
N155        H187   1.035       .  S
N156        C163   1.350       .  A
N156        C164   1.349       .  A
N157        C162   1.355       .  A
N157        C161   1.355       .  A
N157        H188   1.032       .  S
N158        C801   1.352       .  A
N158        C802   1.350       .  A
C159        C167   1.387       .  A
C159        C175   1.412       .  A
C160        C168   1.387       .  A
C160        C812   1.413       .  A
C161        C169   1.387       .  A
C161        C178   1.422       .  A
C162        C170   1.389       .  A
C162        C813   1.424       .  A
C163        C175   1.409       .  A
C163        C171   1.385       .  A
C164        C178   1.412       .  A
C164        C172   1.388       .  A
C165        N794   1.352   1_545  A
C165        C173   1.383       .  A
C165        C176   1.412       .  A
C166        N794   1.350   1_545  A
C166        C174   1.389       .  A
C166        C177   1.418       .  A
C167        H179   1.082       .  S
C167        C168   1.372       .  A
C168        H180   1.082       .  S
C169        H181   1.082       .  S
C169        C170   1.376       .  A
C170        H182   1.082       .  S
C171        H183   1.082       .  S
C171        C172   1.373       .  A
C172        H184   1.082       .  S
C173        H185   1.082       .  S
C173        C174   1.374       .  A
C174        H186   1.082       .  S
C175        C529   1.480       .  S
C176        C517   1.486       .  S
C176        C796   1.412   1_545  A
C177        C565   1.488       .  S
C177        C798   1.424   1_545  A
C178        C604   1.486       .  S
N189        C194   1.349       .  A
N189        C193   1.349       .  A
N189        H221   1.037       .  S
N190        C197   1.349   1_556  A
N190        C198   1.348       .  A
N191        C196   1.353       .  A
N191        C195   1.356       .  A
N191        H222   1.036       .  S
N192        C199   1.351   1_556  A
N192        C200   1.349       .  A
C193        C201   1.386       .  A
C193        C209   1.407       .  A
C194        C202   1.388       .  A
C194       C1482   1.410   1_455  A
C195        C203   1.387       .  A
C195        C212   1.420       .  A
C196        C204   1.387       .  A
C196       C1483   1.419   1_455  A
C197        C209   1.406       .  A
C197        C205   1.384       .  A
C198        C212   1.410       .  A
C198        C206   1.388       .  A
C199        C207   1.385       .  A
C199        C210   1.410       .  A
C200        C208   1.387       .  A
C200        C211   1.413       .  A
C201        H213   1.082       .  S
C201        C202   1.372       .  A
C202        H214   1.082   1_455  S
C203        H215   1.082       .  S
C203        C204   1.376       .  A
C204        H216   1.082   1_455  S
C205        H217   1.082       .  S
C205        C206   1.372   1_554  A
C206        H218   1.082       .  S
C207        H219   1.082       .  S
C207        C208   1.376   1_554  A
C208        H220   1.082       .  S
C209        C577   1.477       .  S
C210        C589   1.481       .  S
C210       C1466   1.411       .  A
C211        C508   1.489       .  S
C211       C1468   1.419       .  A
C212        C493   1.487       .  S
N223        C228   1.348       .  A
N223        C227   1.348       .  A
N223        H255   1.038       .  S
N224       C1503   1.349       .  A
N224       C1504   1.347       .  A
N225        C230   1.356       .  A
N225        C229   1.356       .  A
N225        H256   1.035       .  S
N226        C233   1.351       .  A
N226        C234   1.349       .  A
C227        C235   1.386   1_455  A
C227       C1515   1.405   1_455  A
C228        C244   1.407       .  A
C228        C236   1.387       .  A
C229        C237   1.386       .  A
C229       C1518   1.420   1_455  A
C230        C245   1.424       .  A
C230        C238   1.389       .  A
C231       N1496   1.351       .  A
C231        C243   1.408       .  A
C231        C239   1.384       .  A
C232       N1496   1.348       .  A
C232        C246   1.413       .  A
C232        C240   1.388       .  A
C233        C241   1.384       .  A
C233        C244   1.412       .  A
C234        C242   1.388       .  A
C234        C245   1.416       .  A
C235        H247   1.082       .  S
C235        C236   1.373   1_655  A
C236        H248   1.082       .  S
C237        H249   1.082       .  S
C237        C238   1.376       .  A
C238        H250   1.082       .  S
C239        H251   1.082       .  S
C239        C240   1.374       .  A
C240        H252   1.082       .  S
C241        H253   1.082       .  S
C241        C242   1.377       .  A
C242        H254   1.082       .  S
C243        C628   1.481       .  S
C243       C1499   1.407       .  A
C244        C556   1.484       .  S
C245        C469   1.491       .  S
C246        C484   1.489       .  S
C246       C1501   1.422       .  A
N257        C262   1.351       .  A
N257        C261   1.353       .  A
N257        H289   1.036       .  S
N258        C901   1.352   1_554  A
N258        C902   1.350       .  A
N259        C264   1.354       .  A
N259        C263   1.352       .  A
N259        H290   1.035       .  S
N260        C267   1.350   1_554  A
N260        C268   1.351       .  A
C261        C269   1.387       .  A
C261        C913   1.414       .  A
C262        C278   1.414       .  A
C262        C270   1.388       .  A
C263        C271   1.388       .  A
C263        C916   1.419       .  A
C264        C279   1.418       .  A
C264        C272   1.387       .  A
C265        N894   1.353   1_556  A
C265        C277   1.412       .  A
C265        C273   1.384       .  A
C266        N894   1.350       .  A
C266        C280   1.416       .  A
C266        C274   1.388       .  A
C267        C275   1.385       .  A
C267        C278   1.411       .  A
C268        C276   1.386       .  A
C268        C279   1.413       .  A
C269        H281   1.082       .  S
C269        C270   1.373       .  A
C270        H282   1.082       .  S
C271        H283   1.082       .  S
C271        C272   1.378       .  A
C272        H284   1.082       .  S
C273        H285   1.082       .  S
C273        C274   1.374   1_556  A
C274        H286   1.082       .  S
C275        H287   1.082       .  S
C275        C276   1.374   1_556  A
C276        H288   1.082       .  S
C277        C445   1.489       .  S
C277        C897   1.413   1_545  A
C278        C457   1.482       .  S
C279        C613   1.490       .  S
C280        C544   1.488       .  S
C280        C899   1.421   1_545  A
C291        N292   1.360       .  A
C291        N296   1.359       .  A
C291        C460   1.485       .  S
N292        C293   1.356       .  A
C293        N294   1.355       .  A
C293        C327   1.462       .  S
N294        C295   1.356       .  A
C295        N296   1.357       .  A
C295        C422   1.463       .  S
C297        N298   1.362       .  A
C297        N302   1.364       .  A
C297        C505   1.487       .  S
N298        C299   1.356       .  A
C299        N300   1.350       .  A
C299        C400   1.456       .  S
N300        C301   1.351       .  A
C301        N302   1.359       .  A
C301        C347   1.459       .  S
C303        N304   1.361       .  A
C303        N308   1.361       .  A
C303        C448   1.490       .  S
N304        C305   1.360       .  A
C305        N306   1.355       .  A
C305        C363   1.464       .  S
N306        C307   1.354       .  A
C307        N308   1.357       .  A
C307        C407   1.463       .  S
C309        N310   1.362       .  A
C309        N314   1.361       .  A
C309        C496   1.496       .  S
N310        C311   1.357       .  A
C311        N312   1.358       .  A
C311        C432   1.468       .  S
N312        C313   1.359       .  A
C313        N314   1.357       .  A
C313        C377   1.468       .  S
C315        N316   1.366       .  A
C315        N320   1.362       .  A
C315        C472   1.501       .  S
N316        C317   1.360       .  A
C317        N318   1.356       .  A
C317        C428   1.470       .  S
N318        C319   1.355       .  A
C319        N320   1.358       .  A
C319        C342   1.467       .  S
C321        N322   1.359       .  A
C321        N326   1.358       .  A
C321        C520   1.497       .  S
N322        C323   1.358       .  A
C323        N324   1.358       .  A
C323        C442   1.467       .  S
N324        C325   1.359       .  A
C325        N326   1.359       .  A
C325        C367   1.467       .  S
C327        N345   1.348       .  A
C327        C364   1.457       .  S
N328        N345   1.324       .  A
N328        N350   1.322       .  A
N328       Co365   2.077       .  S
C329        N354   1.339       .  A
C329        C367   1.457       .  S
C329        H374   1.081       .  S
H330        C371   1.082       .  S
C331        N355   1.336       .  A
C331        C335   1.453       .  S
C331        H360   1.082       .  S
Co332       N350   2.088       .  S
Co332       N340   2.078       .  S
Co332       N372   2.075       .  S
Co332       N348   2.095       .  S
Co332      Cl376   2.427       .  S
N333        C371   1.343       .  A
N333        N340   1.320       .  A
N333       Co334   2.085       .  S
Co334       N337   2.081       .  S
Co334       N354   2.078       .  S
Co334       N341   2.091       .  S
Co334      Cl376   2.477       .  S
C335        N373   1.350       .  A
C335        C388   1.461       .  S
N336        N343   1.320       .  A
N336        N366   1.324       .  A
N336       Co369   2.080       .  S
N337        N355   1.321       .  A
N337        N373   1.326       .  A
N338        C367   1.351       .  A
N338        N348   1.327       .  A
H339        C364   1.082       .  S
N340        N361   1.322       .  A
N341        N359   1.320       .  A
N341        N346   1.327       .  A
C342        N346   1.352       .  A
C342        C370   1.455       .  S
N343        C358   1.345       .  A
N343       Co365   2.094       .  S
C344        N372   1.335       .  A
C344        C347   1.453       .  S
C344        H378   1.082       .  S
C347        N368   1.349       .  A
N348        N354   1.321       .  A
N349        C375   1.340       .  A
N349        N351   1.321       .  A
N349       Co365   2.075       .  S
N350        C364   1.340       .  A
N351        N379   1.324       .  A
N351       Co369   2.091       .  S
H352        C375   1.082       .  S
H353        C370   1.082       .  S
N355       Co369   2.081       .  S
N356        N368   1.327       .  A
N356        N372   1.321       .  A
N356       Co365   2.086       .  S
C357        N361   1.346       .  A
C357        C371   1.459       .  S
C357        C382   1.459       .  S
C358        C377   1.465       .  S
C358        H362   1.082       .  S
N359        C370   1.338       .  A
N359       Co369   2.081       .  S
C363        N379   1.350       .  A
C363        C375   1.456       .  S
Co365      Cl376   2.477       .  S
N366        C377   1.346       .  A
Co369      Cl376   2.424       .  S
C380        N381   1.362       .  A
C380        N385   1.362       .  A
C380        C481   1.490       .  S
N381        C382   1.357       .  A
C382        N383   1.353       .  A
N383        C384   1.353       .  A
C384        N385   1.357       .  A
C384        C392   1.460       .  S
C386        N387   1.361       .  A
C386        N391   1.360       .  A
C386        C532   1.483       .  S
N387        C388   1.358       .  A
C388        N389   1.354       .  A
N389        C390   1.352       .  A
C390        N391   1.354       .  A
C390        C412   1.459       .  S
C392        N410   1.350       .  A
C392        C429   1.454       .  S
N393        N410   1.326       .  A
N393        N415   1.320       .  A
N393      Co1702   2.085       .  S
C394        N419   1.344       .  A
C394        C432   1.463       .  S
C394        H439   1.082       .  S
H395        C436   1.082       .  S
C396        N420   1.335       .  A
C396        C400   1.453       .  S
C396        H425   1.082       .  S
Co397       N437   2.082       .  S
Co397       N413   2.083       .  S
Co397      N1687   2.078   1_455  S
Co397      N1677   2.087   1_455  S
Co397      Cl441   2.427       .  S
N398        C436   1.342       .  A
N398        N405   1.320       .  A
N398      Co1671   2.082       .  S
Co399       N419   2.093       .  S
Co399      N1670   2.080   1_455  S
Co399      N2310   2.082   1_455  S
Co399      N1042   2.078       .  S
Co399      Cl441   2.473       .  S
C400        N438   1.349       .  A
N401        N408   1.320       .  A
N401        N431   1.327       .  A
N401      Co1706   2.095       .  S
N402        N420   1.321       .  A
N402        N438   1.326       .  A
N402      Co2307   2.082   1_545  S
N403        C432   1.348       .  A
N403        N413   1.324       .  A
H404        C429   1.082       .  S
N405        N426   1.323       .  A
N405      Co1669   2.081       .  S
N406        N424   1.322       .  A
N406        N411   1.324       .  A
N406      Co1035   2.077   1_545  S
C407        N411   1.347       .  A
C407        C435   1.459       .  S
N408        C423   1.338       .  A
N408      Co2338   2.074   1_545  S
C409        N437   1.338       .  A
C409        C412   1.454       .  S
C409        H443   1.082       .  S
C412        N433   1.348       .  A
N413        N419   1.320       .  A
N414        C440   1.347       .  A
N414        N416   1.320       .  A
N414      Co1066   2.098   1_545  S
N415        C429   1.336       .  A
N415      Co1669   2.076       .  S
N416        N444   1.323       .  A
N416       Co434   2.084       .  S
H417        C440   1.082   1_565  S
H418        C435   1.082       .  S
N420      Co1706   2.075       .  S
N421        N433   1.324       .  A
N421        N437   1.321       .  A
N421       Co430   2.076       .  S
C422        N426   1.347       .  A
C422        C436   1.459       .  S
C423        C442   1.455       .  S
C423        H427   1.082   1_545  S
N424        C435   1.341       .  A
N424       Co434   2.092       .  S
C428        N444   1.348       .  A
C428        C440   1.464       .  S
Co430      N1665   2.088   1_455  S
Co430      N2316   2.071   1_455  S
Co430      N1050   2.094       .  S
Co430      Cl441   2.473       .  S
N431        C442   1.351       .  A
Co434      N1673   2.096   1_455  S
Co434      N1692   2.074       .  S
Co434     Cl1077   2.428   1_545  S
Cl441     Co1070   2.429       .  S
C445        C446   1.402       .  A
C445        C450   1.411       .  A
C446        H455   1.083       .  S
C446        C447   1.408       .  A
C447        C448   1.419       .  A
C447        S451   1.808       .  S
C448        C449   1.406       .  A
C449        H456   1.083       .  S
C449        C450   1.396       .  A
C450       S1088   1.805   1_545  S
S451        H454   1.407       .  S
S452       C1086   1.804       .  S
S452        H453   1.406       .  S
C457        C458   1.400       .  A
C457        C462   1.409       .  A
C458        H467   1.083       .  S
C458        C459   1.403       .  A
C459        C460   1.419       .  A
C459        S463   1.809       .  S
C460        C461   1.407       .  A
C461        H468   1.083       .  S
C461        C462   1.395       .  A
C462        S464   1.805       .  S
S463        H466   1.407       .  S
S464        H465   1.406       .  S
C469        C470   1.401       .  A
C469        C474   1.411       .  A
C470        H479   1.084       .  S
C470        C471   1.404       .  A
C471        C472   1.423       .  A
C471        S475   1.803       .  S
C472        C473   1.410       .  A
C473        H480   1.083       .  S
C473        C474   1.400       .  A
C474        S476   1.805       .  S
S475        H478   1.408       .  S
S476        H477   1.405       .  S
C481        C482   1.410       .  A
C481        C486   1.418       .  A
C482        H491   1.083       .  S
C482        C483   1.399       .  A
C483        C484   1.409       .  A
C483       S1759   1.804       .  S
C484        C485   1.403       .  A
C485        H492   1.084       .  S
C485        C486   1.401       .  A
C486        S488   1.803       .  S
S487       C1755   1.804   1_455  S
S487        H490   1.406       .  S
S488        H489   1.407       .  S
C493        C494   1.401       .  A
C493        C498   1.409       .  A
C494        H503   1.084       .  S
C494        C495   1.400       .  A
C495        C496   1.421       .  A
C495        S499   1.803       .  S
C496        C497   1.411       .  A
C497        H504   1.083       .  S
C497        C498   1.398       .  A
C498        S500   1.805       .  S
S499        H502   1.408       .  S
S500        H501   1.405       .  S
C505        C506   1.408       .  A
C505        C510   1.415       .  A
C506        H515   1.083       .  S
C506        C507   1.396       .  A
C507        C508   1.410       .  A
C507        S511   1.805       .  S
C508        C509   1.404       .  A
C509        H516   1.083       .  S
C509        C510   1.406       .  A
C510        S512   1.807       .  S
S511        H514   1.406       .  S
S512        H513   1.407       .  S
C517        C518   1.400       .  A
C517        C522   1.409       .  A
C518        H527   1.084       .  S
C518        C519   1.400       .  A
C519        C520   1.423       .  A
C519        S523   1.802       .  S
C520        C521   1.412       .  A
C521        H528   1.083       .  S
C521        C522   1.400       .  A
C522       S1160   1.805   1_545  S
S523        H526   1.408       .  S
S524       C1158   1.806       .  S
S524        H525   1.403       .  S
C529        C530   1.401       .  A
C529        C534   1.409       .  A
C530        H539   1.084       .  S
C530        C531   1.400       .  A
C531        C532   1.418       .  A
C531        S535   1.803       .  S
C532        C533   1.406       .  A
C533        H540   1.083       .  S
C533        C534   1.394       .  A
C534        S536   1.805       .  S
S535        H538   1.408       .  S
S536        H537   1.406       .  S
C541        C542   1.408       .  A
C541        C546   1.414       .  A
C542        H551   1.083       .  S
C542        C543   1.394       .  A
C543        C544   1.411       .  A
C543       S1183   1.807   1_545  S
C544        C545   1.405       .  A
C545        H552   1.084       .  S
C545        C546   1.401       .  A
C546        S548   1.803       .  S
S547       C1179   1.806       .  S
S547        H550   1.406       .  S
S548        H549   1.407       .  S
C553        C554   1.404       .  A
C553        C558   1.419       .  A
C554        H563   1.084       .  S
C554        C555   1.396       .  A
C555        C556   1.413       .  A
C555        S559   1.806       .  S
C556        C557   1.400       .  A
C557        H564   1.084       .  S
C557        C558   1.400       .  A
C558        S560   1.803       .  S
S559        H562   1.405       .  S
S560        H561   1.407       .  S
C565        C566   1.401       .  A
C565        C570   1.410       .  A
C566        H575   1.084       .  S
C566        C567   1.399       .  A
C567        C568   1.421       .  A
C567        S571   1.802       .  S
C568        C569   1.412       .  A
C569        H576   1.083       .  S
C569        C570   1.399       .  A
C570       S1208   1.806   1_545  S
S571        H574   1.408       .  S
S572       C1206   1.805       .  S
S572        H573   1.405       .  S
C577        C578   1.400       .  A
C577        C582   1.410       .  A
C578        H587   1.084       .  S
C578        C579   1.398       .  A
C579        C580   1.418       .  A
C579        S583   1.803       .  S
C580        C581   1.405       .  A
C581        H588   1.084       .  S
C581        C582   1.393       .  A
C582        S584   1.805       .  S
S583        H586   1.407       .  S
S584        H585   1.406       .  S
C589        C590   1.399       .  A
C589        C594   1.409       .  A
C590       H1871   1.085       .  S
C590        C591   1.396       .  A
C591        C592   1.420       .  A
C591       S1867   1.802       .  S
C592        C593   1.411       .  A
C593        H600   1.083       .  S
C593        C594   1.400       .  A
C594        S596   1.806       .  S
S595       C1863   1.804   1_455  S
S595       H1870   1.408       .  S
S596        H597   1.403       .  S
H598       S1867   1.408       .  S
H599       C1862   1.085   1_455  S
C601        C602   1.411       .  A
C601        C606   1.419       .  A
C602        H611   1.083       .  S
C602        C603   1.398       .  A
C603        C604   1.408       .  A
C603        S607   1.805       .  S
C604        C605   1.401       .  A
C605        H612   1.083       .  S
C605        C606   1.404       .  A
C606        S608   1.809       .  S
S607        H610   1.405       .  S
S608        H609   1.407       .  S
C613        C614   1.404       .  A
C613        C618   1.411       .  A
C614        H623   1.084       .  S
C614        C615   1.403       .  A
C615        C616   1.418       .  A
C615        S619   1.803       .  S
C616        C617   1.408       .  A
C617        H624   1.083       .  S
C617        C618   1.398       .  A
C618        S620   1.805       .  S
S619        H622   1.407       .  S
S620        H621   1.405       .  S
C625        C626   1.405       .  A
C625        C630   1.419       .  A
C626        H635   1.084       .  S
C626        C627   1.395       .  A
C627        C628   1.411       .  A
C627       S1903   1.806       .  S
C628        C629   1.400       .  A
C629        H636   1.084       .  S
C629        C630   1.400       .  A
C630        S632   1.803       .  S
S631       C1899   1.805   1_455  S
S631        H634   1.406       .  S
S632        H633   1.407       .  S
C637        N638   1.359       .  A
C637        N642   1.358       .  A
C637       C1261   1.480       .  S
N638        C639   1.356       .  A
C639        N640   1.356       .  A
C639        C661   1.462       .  S
N640        C641   1.357       .  A
C641        N642   1.356       .  A
C641        C768   1.460       .  S
C643        N644   1.362       .  A
C643        N648   1.363       .  A
C643       C1252   1.494       .  S
N644        C645   1.357       .  A
C645        N646   1.356       .  A
C645        C738   1.466       .  S
N646        C647   1.357       .  A
C647        N648   1.358       .  A
C647        C691   1.466       .  S
C649        N650   1.360       .  A
C649        N654   1.361       .  A
C649       C1237   1.492       .  S
N650        C651   1.357       .  A
C651        N652   1.356       .  A
C651        C778   1.463       .  S
N652        C653   1.356       .  A
C653        N654   1.357       .  A
C653        C711   1.462       .  S
C655        N656   1.357       .  A
C655        N660   1.357       .  A
C655       C1228   1.490       .  S
N656        C657   1.357       .  A
C657        N658   1.356       .  A
C657        C788   1.461       .  S
N658        C659   1.357       .  A
C659        N660   1.357       .  A
C659        C701   1.462       .  S
C661       N1951   1.347       .  A
C661        C698   1.458       .  S
N662        N679   1.323       .  A
N662       N1956   1.321       .  A
N662       Co699   2.074   1_655  S
C663       C1973   1.456       .  S
C663        H708   1.082   1_655  S
H664        C705   1.082   1_455  S
C665        N689   1.337       .  A
C665        C669   1.453       .  S
C665        H694   1.082       .  S
Co666       N684   2.088       .  S
Co666       N674   2.080       .  S
Co666       N706   2.078       .  S
Co666       N682   2.090   1_565  S
Co666     Cl1982   2.426       .  S
N667        C705   1.346       .  A
N667       N1946   1.320       .  A
N667       Co668   2.093   1_655  S
Co668       N671   2.085       .  S
Co668       N688   2.079       .  S
Co668       N675   2.089       .  S
Co668      Cl710   2.472       .  S
C669        N707   1.350       .  A
C669        C716   1.461       .  S
N670        N677   1.319       .  A
N670        N700   1.323       .  A
N670       Co703   2.080       .  S
N671        N689   1.321       .  A
N671        N707   1.326       .  A
N672        C701   1.349       .  A
H673        C698   1.082       .  S
N674       N1939   1.321       .  A
N674        N695   1.322       .  A
N675        N693   1.319       .  A
C676        N680   1.351       .  A
C676        C704   1.454       .  S
C676        C734   1.463       .  S
N677        C692   1.343       .  A
N677       Co699   2.087       .  S
C678        C681   1.455       .  S
C678        H712   1.082       .  S
N679       C1933   1.347       .  A
C681       N1974   1.349       .  A
C681        C722   1.460       .  S
N682       N1960   1.320       .  A
N683        N685   1.320       .  A
N683       Co699   2.074       .  S
N684        C698   1.341       .  A
N684       N1934   1.320       .  A
N685       Co703   2.087       .  S
H686        C709   1.082       .  S
H687        C704   1.082       .  S
N688       N1954   1.320   1_455  A
N689       Co703   2.080       .  S
N690       N1978   1.319       .  A
N690       Co699   2.085   1_655  S
C691        N695   1.345       .  A
C691       C1977   1.464       .  S
C692        C711   1.461       .  S
C692        H696   1.082       .  S
N693       Co703   2.074       .  S
C697        N713   1.348       .  A
C697        C709   1.456       .  S
C697        C728   1.463       .  S
Co699      Cl710   2.470       .  S
N700        C711   1.347       .  A
C701       C1935   1.455       .  S
N702       C1953   1.351       .  A
Co703      Cl710   2.428       .  S
C705       C1963   1.463       .  S
N706       N1962   1.320       .  A
Cl710     Co1938   2.426   1_455  S
C714        N715   1.360       .  A
C714        N719   1.362       .  A
C714       C1216   1.482       .  S
N715        C716   1.356       .  A
C716        N717   1.353       .  A
N717        C718   1.353       .  A
C718        N719   1.357       .  A
C718        C758   1.460       .  S
C720        N721   1.365       .  A
C720        N725   1.362       .  A
C720       C1204   1.497       .  S
N721        C722   1.359       .  A
C722        N723   1.351       .  A
N723        C724   1.351       .  A
C724        N725   1.356       .  A
C724        C746   1.459       .  S
C726        N727   1.358       .  A
C726        N731   1.358       .  A
C726       C1189   1.481       .  S
N727        C728   1.357       .  A
C728        N729   1.357       .  A
N729        C730   1.357       .  A
C730        N731   1.355       .  A
C730        C753   1.463       .  S
C732        N733   1.361       .  A
C732        N737   1.360       .  A
C732       C1177   1.483       .  S
N733        C734   1.356       .  A
C734        N735   1.356       .  A
N735        C736   1.356       .  A
C736        N737   1.356       .  A
C736        C774   1.461       .  S
C738        N756   1.352       .  A
C738        C775   1.456       .  S
N739        N756   1.327       .  A
N739        N761   1.319       .  A
N739       Co776   2.090       .  S
C740        N765   1.343       .  A
C740        C778   1.460       .  S
C740        H785   1.082       .  S
H741        C782   1.082       .  S
C742        N766   1.335       .  A
C742        C746   1.451       .  S
C742        H771   1.082       .  S
Co743       N761   2.080       .  S
Co743       N751   2.080       .  S
Co743       N783   2.082       .  S
Co743       N759   2.082       .  S
Co743      Cl787   2.424       .  S
N744        C782   1.341       .  A
N744        N751   1.321       .  A
N744       Co745   2.081       .  S
Co745       N748   2.087       .  S
Co745       N765   2.086       .  S
Co745       N752   2.083       .  S
Co745      Cl787   2.473       .  S
C746        N784   1.351       .  A
N747        N754   1.320       .  A
N747        N777   1.326       .  A
N747       Co780   2.092       .  S
N748        N766   1.320       .  A
N748        N784   1.327       .  A
N749        C778   1.347       .  A
N749        N759   1.323       .  A
H750        C775   1.082       .  S
N751        N772   1.322       .  A
N752        N770   1.321       .  A
N752        N757   1.324       .  A
C753        N757   1.349       .  A
C753        C781   1.455       .  S
N754        C769   1.335       .  A
N754       Co776   2.066       .  S
C755        N783   1.337       .  A
C755        C758   1.454       .  S
C755        H789   1.082       .  S
C758        N779   1.349       .  A
N759        N765   1.320       .  A
N760        C786   1.344       .  A
N760        N762   1.320       .  A
N760       Co776   2.091       .  S
N761        C775   1.339       .  A
N762        N790   1.322       .  A
N762       Co780   2.074       .  S
H763        C786   1.082       .  S
H764        C781   1.082       .  S
N766       Co780   2.070       .  S
N767        N779   1.325       .  A
N767        N783   1.321       .  A
N767       Co776   2.076       .  S
C768        N772   1.346       .  A
C768        C782   1.459       .  S
C769        C788   1.452       .  S
C769        H773   1.082       .  S
N770        C781   1.340       .  A
N770       Co780   2.085       .  S
C774        N790   1.345       .  A
C774        C786   1.462       .  S
Co776      Cl787   2.471       .  S
N777        C788   1.351       .  A
Co780      Cl787   2.427       .  S
N791        C796   1.352       .  A
N791        C795   1.350       .  A
N791        H823   1.036       .  S
N792        C799   1.350       .  A
N792        C800   1.350       .  A
N793        C798   1.354       .  A
N793        C797   1.356       .  A
N793        H824   1.033       .  S
C795        C803   1.387       .  A
C795        C811   1.411       .  A
C796        C804   1.387       .  A
C797        C805   1.386       .  A
C797        C814   1.422       .  A
C798        C806   1.389       .  A
C799        C811   1.410       .  A
C799        C807   1.385       .  A
C800        C814   1.413       .  A
C800        C808   1.387       .  A
C801        C809   1.384       .  A
C801        C812   1.412       .  A
C802        C810   1.388       .  A
C802        C813   1.417       .  A
C803        H815   1.082       .  S
C803        C804   1.372       .  A
C804        H816   1.082       .  S
C805        H817   1.082       .  S
C805        C806   1.377       .  A
C806        H818   1.082       .  S
C807        H819   1.082       .  S
C807        C808   1.373       .  A
C808        H820   1.082       .  S
C809        H821   1.082       .  S
C809        C810   1.374       .  A
C810        H822   1.082       .  S
C811       C1165   1.479       .  S
C812       C1153   1.486       .  S
C813       C1201   1.489       .  S
C814       C1240   1.489       .  S
N825        C830   1.350       .  A
N825        C829   1.350       .  A
N825        H857   1.037       .  S
N826        C833   1.350   1_556  A
N826        C834   1.348       .  A
N827        C832   1.353       .  A
N827        C831   1.355       .  A
N827        H858   1.035       .  S
N828        C835   1.351   1_556  A
N828        C836   1.349       .  A
C829        C837   1.386       .  A
C829        C845   1.408       .  A
C830       C2118   1.412   1_455  A
C830        C838   1.388       .  A
C831        C839   1.388       .  A
C831        C848   1.421       .  A
C832       C2119   1.419   1_455  A
C832        C840   1.387       .  A
C833        C845   1.406       .  A
C833        C841   1.383       .  A
C834        C848   1.413       .  A
C834        C842   1.389       .  A
C835        C843   1.384       .  A
C835        C846   1.410       .  A
C836        C844   1.387       .  A
C836        C847   1.413       .  A
C837        H849   1.083       .  S
C837        C838   1.372       .  A
C838        H850   1.083   1_455  S
C839        H851   1.081       .  S
C839        C840   1.375       .  A
C840        H852   1.082   1_455  S
C841        H853   1.082       .  S
C841        C842   1.371   1_554  A
C842        H854   1.081       .  S
C843        H855   1.082       .  S
C843        C844   1.376   1_554  A
C844        H856   1.082       .  S
C845       C1213   1.479       .  S
C846       C1225   1.482       .  S
C846       C2102   1.410       .  A
C847       C1144   1.489       .  S
C847       C2104   1.420       .  A
C848       C1129   1.486       .  S
N859        C864   1.349       .  A
N859        C863   1.350       .  A
N859        H891   1.038       .  S
N860       C2139   1.350   1_455  A
N860       C2140   1.347   1_455  A
N861        C866   1.357       .  A
N861        C865   1.356       .  A
N861        H892   1.037       .  S
N862        C869   1.351       .  A
N862        C870   1.350       .  A
C863        C871   1.387       .  A
C863       C2151   1.408   1_455  A
C864        C880   1.409       .  A
C864        C872   1.387       .  A
C865        C873   1.385       .  A
C865       C2154   1.420   1_455  A
C866        C881   1.425       .  A
C866        C874   1.388       .  A
C867       N2132   1.350       .  A
C867        C879   1.407       .  A
C867        C875   1.384       .  A
C868       N2132   1.348       .  A
C868        C882   1.410       .  A
C868        C876   1.387       .  A
C869        C877   1.384       .  A
C869        C880   1.411       .  A
C870        C878   1.388       .  A
C870        C881   1.415       .  A
C871        H883   1.083   1_455  S
C871        C872   1.372       .  A
C872        H884   1.082       .  S
C873        H885   1.082       .  S
C873        C874   1.376       .  A
C874        H886   1.081       .  S
C875        H887   1.082       .  S
C875        C876   1.375       .  A
C876        H888   1.082       .  S
C877        H889   1.082       .  S
C877        C878   1.376       .  A
C878        H890   1.082       .  S
C879       C1264   1.479       .  S
C879       C2135   1.407       .  A
C880       C1192   1.482       .  S
C881       C1105   1.495       .  S
C882       C1120   1.490       .  S
C882       C2137   1.420       .  A
N893        C898   1.351       .  A
N893        C897   1.352       .  A
N893        H925   1.036       .  S
N895        C900   1.356       .  A
N895        C899   1.353       .  A
N895        H926   1.035       .  S
N896        C903   1.350   1_554  A
N896        C904   1.350       .  A
C897        C905   1.387       .  A
C898        C914   1.413       .  A
C898        C906   1.388       .  A
C899        C907   1.388       .  A
C900        C915   1.419       .  A
C900        C908   1.386       .  A
C901        C913   1.409       .  A
C901        C909   1.384       .  A
C902        C916   1.414       .  A
C902        C910   1.388       .  A
C903        C911   1.385       .  A
C903        C914   1.409       .  A
C904        C912   1.386       .  A
C904        C915   1.411       .  A
C905        H917   1.082   1_565  S
C905        C906   1.372       .  A
C906        H918   1.082       .  S
C907        H919   1.082       .  S
C907        C908   1.377       .  A
C908        H920   1.082       .  S
C909        H921   1.082       .  S
C909        C910   1.373   1_556  A
C910        H922   1.082       .  S
C911        H923   1.082       .  S
C911        C912   1.374   1_556  A
C912        H924   1.082       .  S
C913       C1081   1.488       .  S
C914       C1093   1.480       .  S
C915       C1249   1.489       .  S
C916       C1180   1.486       .  S
C927        N928   1.358       .  A
C927        N932   1.361       .  A
C927       C1096   1.484       .  S
N928        C929   1.353       .  A
C929        N930   1.357       .  A
C929        C963   1.464       .  S
N930        C931   1.358       .  A
C931        N932   1.359       .  A
C931       C1058   1.468       .  S
C933        N934   1.361       .  A
C933        N938   1.364       .  A
C933       C1141   1.487       .  S
N934        C935   1.354       .  A
C935        N936   1.351       .  A
C935       C1036   1.459       .  S
N936        C937   1.354       .  A
C937        N938   1.361       .  A
C937        C983   1.461       .  S
C939        N940   1.362       .  A
C939        N944   1.359       .  A
C939       C1084   1.488       .  S
N940        C941   1.360       .  A
C941        N942   1.356       .  A
C941        C999   1.466       .  S
N942        C943   1.355       .  A
C943        N944   1.357       .  A
C943       C1043   1.462       .  S
C945        N946   1.360       .  A
C945        N950   1.361       .  A
C945       C1132   1.492       .  S
N946        C947   1.356       .  A
C947        N948   1.357       .  A
C947       C1068   1.461       .  S
N948        C949   1.356       .  A
C949        N950   1.356       .  A
C949       C1013   1.465       .  S
C951        N952   1.366       .  A
C951        N956   1.363       .  A
C951       C1108   1.501       .  S
N952        C953   1.360       .  A
C953        N954   1.355       .  A
C953       C1064   1.468       .  S
N954        C955   1.354       .  A
C955        N956   1.359       .  A
C955        C978   1.468       .  S
C957        N958   1.359       .  A
C957        N962   1.356       .  A
C957       C1156   1.489       .  S
N958        C959   1.359       .  A
C959        N960   1.360       .  A
C959       C1078   1.466       .  S
N960        C961   1.359       .  A
C961        N962   1.356       .  A
C961       C1003   1.465       .  S
C963        N981   1.350       .  A
C963       C1000   1.455       .  S
N964        N981   1.325       .  A
N964        N986   1.321       .  A
N964      Co1001   2.085       .  S
C965        N990   1.337       .  A
C965       C1003   1.456       .  S
C965       H1010   1.081       .  S
H966       C1007   1.082       .  S
C967        N991   1.338       .  A
C967        C971   1.456       .  S
C967        H996   1.082       .  S
Co968       N986   2.084       .  S
Co968       N976   2.079       .  S
Co968      N1008   2.074       .  S
Co968       N984   2.091       .  S
Co968     Cl1012   2.427       .  S
N969       C1007   1.344       .  A
N969        N976   1.320       .  A
N969       Co970   2.087       .  S
Co970       N973   2.075       .  S
Co970       N990   2.075       .  S
Co970       N977   2.091       .  S
Co970     Cl1012   2.476       .  S
C971       N1009   1.348       .  A
C971       C1024   1.461       .  S
N972        N979   1.321       .  A
N972       N1002   1.324       .  A
N972      Co1005   2.083       .  S
N973        N991   1.321       .  A
N973       N1009   1.325       .  A
N974       C1003   1.350       .  A
N974        N984   1.326       .  A
H975       C1000   1.082       .  S
N976        N997   1.322       .  A
N977        N995   1.320       .  A
N977        N982   1.328       .  A
C978        N982   1.351       .  A
C978       C1006   1.456       .  S
N979        C994   1.344       .  A
N979      Co1001   2.092       .  S
C980       N1008   1.334       .  A
C980        C983   1.451       .  S
C980       H1014   1.082       .  S
C983       N1004   1.351       .  A
N984        N990   1.321       .  A
N985       C1011   1.342       .  A
N985        N987   1.321       .  A
N985      Co1001   2.082       .  S
N986       C1000   1.340       .  A
N987       N1015   1.324       .  A
N987      Co1005   2.094       .  S
H988       C1011   1.082       .  S
H989       C1006   1.082       .  S
N991      Co1005   2.088       .  S
N992       N1004   1.328       .  A
N992       N1008   1.321       .  A
N992      Co1001   2.089       .  S
C993        N997   1.347       .  A
C993       C1007   1.460       .  S
C993       C1018   1.462       .  S
C994       C1013   1.462       .  S
C994        H998   1.082       .  S
N995       C1006   1.339       .  A
N995      Co1005   2.083       .  S
C999       N1015   1.350       .  A
C999       C1011   1.458       .  S
Co1001    Cl1012   2.479       .  S
N1002      C1013   1.347       .  A
Co1005    Cl1012   2.427       .  S
C1016      N1017   1.363       .  A
C1016      N1021   1.361       .  A
C1016      C1117   1.491       .  S
N1017      C1018   1.360       .  A
C1018      N1019   1.354       .  A
N1019      C1020   1.354       .  A
C1020      N1021   1.356       .  A
C1020      C1028   1.461       .  S
C1022      N1023   1.361       .  A
C1022      N1027   1.361       .  A
C1022      C1168   1.484       .  S
N1023      C1024   1.358       .  A
C1024      N1025   1.352       .  A
N1025      C1026   1.352       .  A
C1026      N1027   1.355       .  A
C1026      C1048   1.458       .  S
C1028      N1046   1.351       .  A
C1028      C1065   1.454       .  S
N1029      N1046   1.326       .  A
N1029      N1051   1.320       .  A
N1029     Co2338   2.088       .  S
C1030      N1055   1.343       .  A
C1030      C1068   1.462       .  S
C1030      H1075   1.082       .  S
H1031      C1072   1.082       .  S
C1032      N1056   1.337       .  A
C1032      C1036   1.454       .  S
C1032      H1061   1.082       .  S
Co1033     N2323   2.073   1_455  S
Co1033     N2313   2.090       .  S
Co1033     N1073   2.080       .  S
Co1033     N1049   2.079       .  S
Co1033    Cl1077   2.426       .  S
N1034      C1072   1.343       .  A
N1034      N1041   1.320       .  A
N1034     Co2307   2.085       .  S
Co1035     N2306   2.083       .  S
Co1035     N1674   2.081   1_565  S
Co1035     N1055   2.085       .  S
Co1035    Cl1077   2.474       .  S
C1036      N1074   1.349       .  A
N1037      N1044   1.320       .  A
N1037      N1067   1.327       .  A
N1037     Co2342   2.092       .  S
N1038      N1056   1.321       .  A
N1038      N1074   1.326       .  A
N1038     Co1671   2.086       .  S
N1039      C1068   1.347       .  A
N1039      N1049   1.322       .  A
H1040      C1065   1.082       .  S
N1041      N1062   1.324       .  A
N1041     Co2305   2.087       .  S
N1042      N1060   1.322       .  A
N1042      N1047   1.324       .  A
C1043      N1047   1.347       .  A
C1043      C1071   1.457       .  S
N1044      C1059   1.338       .  A
N1044     Co1702   2.076       .  S
C1045      N1073   1.336       .  A
C1045      C1048   1.453       .  S
C1045      H1079   1.082       .  S
C1048      N1069   1.349       .  A
N1049      N1055   1.319       .  A
N1050      C1076   1.346       .  A
N1050      N1052   1.320       .  A
N1051      C1065   1.337       .  A
N1051     Co2305   2.076       .  S
N1052      N1080   1.323       .  A
N1052     Co1070   2.084       .  S
H1053      C1076   1.082       .  S
H1054      C1071   1.082       .  S
N1056     Co2342   2.077       .  S
N1057      N1069   1.325       .  A
N1057      N1073   1.321       .  A
N1057     Co1066   2.076       .  S
C1058      N1062   1.348       .  A
C1058      C1072   1.461       .  S
C1059      C1078   1.456       .  S
C1059      H1063   1.082       .  S
N1060      C1071   1.341       .  A
N1060     Co1070   2.090       .  S
C1064      N1080   1.348       .  A
C1064      C1076   1.463       .  S
Co1066     N2301   2.092       .  S
Co1066     N1680   2.072   1_465  S
Co1066    Cl1077   2.473       .  S
N1067      C1078   1.351       .  A
Co1070     N2309   2.099   1_455  S
Co1070     N2328   2.077   1_455  S
C1081      C1082   1.402       .  A
C1081      C1086   1.410       .  A
C1082      H1091   1.084       .  S
C1082      C1083   1.402       .  A
C1083      C1084   1.418       .  A
C1083      S1087   1.802       .  S
C1084      C1085   1.407       .  A
C1085      H1092   1.083       .  S
C1085      C1086   1.398       .  A
S1087      H1090   1.408       .  S
S1088      H1089   1.406       .  S
C1093      C1094   1.401       .  A
C1093      C1098   1.408       .  A
C1094      H1103   1.083       .  S
C1094      C1095   1.404       .  A
C1095      C1096   1.417       .  A
C1095      S1099   1.808       .  S
C1096      C1097   1.407       .  A
C1097      H1104   1.084       .  S
C1097      C1098   1.393       .  A
C1098      S1100   1.805       .  S
S1099      H1102   1.407       .  S
S1100      H1101   1.406       .  S
C1105      C1106   1.402       .  A
C1105      C1110   1.412       .  A
C1106      H1115   1.084       .  S
C1106      C1107   1.404       .  A
C1107      C1108   1.421       .  A
C1107      S1111   1.803       .  S
C1108      C1109   1.410       .  A
C1109      H1116   1.083       .  S
C1109      C1110   1.401       .  A
C1110      S1112   1.805       .  S
S1111      H1114   1.408       .  S
S1112      H1113   1.405       .  S
C1117      C1118   1.410       .  A
C1117      C1122   1.417       .  A
C1118      H1127   1.083       .  S
C1118      C1119   1.398       .  A
C1119      C1120   1.409       .  A
C1119      S2395   1.805       .  S
C1120      C1121   1.404       .  A
C1121      H1128   1.084       .  S
C1121      C1122   1.403       .  A
C1122      S1124   1.803       .  S
S1123      C2391   1.804   1_455  S
S1123      H1126   1.406       .  S
S1124      H1125   1.407       .  S
C1129      C1130   1.402       .  A
C1129      C1134   1.410       .  A
C1130      H1139   1.084       .  S
C1130      C1131   1.397       .  A
C1131      C1132   1.418       .  A
C1131      S1135   1.803       .  S
C1132      C1133   1.411       .  A
C1133      H1140   1.083       .  S
C1133      C1134   1.399       .  A
C1134      S1136   1.806       .  S
S1135      H1138   1.408       .  S
S1136      H1137   1.405       .  S
C1141      C1142   1.408       .  A
C1141      C1146   1.414       .  A
C1142      H1151   1.083       .  S
C1142      C1143   1.395       .  A
C1143      C1144   1.410       .  A
C1143      S1147   1.805       .  S
C1144      C1145   1.405       .  A
C1145      H1152   1.083       .  S
C1145      C1146   1.406       .  A
C1146      S1148   1.806       .  S
S1147      H1150   1.406       .  S
S1148      H1149   1.407       .  S
C1153      C1154   1.401       .  A
C1153      C1158   1.411       .  A
C1154      H1163   1.085       .  S
C1154      C1155   1.396       .  A
C1155      C1156   1.420       .  A
C1155      S1159   1.803       .  S
C1156      C1157   1.409       .  A
C1157      H1164   1.084       .  S
C1157      C1158   1.401       .  A
S1159      H1162   1.408       .  S
S1160      H1161   1.403       .  S
C1165      C1166   1.400       .  A
C1165      C1170   1.409       .  A
C1166      H1175   1.084       .  S
C1166      C1167   1.399       .  A
C1167      C1168   1.419       .  A
C1167      S1171   1.802       .  S
C1168      C1169   1.407       .  A
C1169      H1176   1.083       .  S
C1169      C1170   1.394       .  A
C1170      S1172   1.805       .  S
S1171      H1174   1.407       .  S
S1172      H1173   1.406       .  S
C1177      C1178   1.407       .  A
C1177      C1182   1.415       .  A
C1178      H1187   1.083       .  S
C1178      C1179   1.396       .  A
C1179      C1180   1.411       .  A
C1180      C1181   1.404       .  A
C1181      H1188   1.084       .  S
C1181      C1182   1.401       .  A
C1182      S1184   1.803       .  S
S1183      H1186   1.405       .  S
S1184      H1185   1.407       .  S
C1189      C1190   1.405       .  A
C1189      C1194   1.418       .  A
C1190      H1199   1.084       .  S
C1190      C1191   1.395       .  A
C1191      C1192   1.411       .  A
C1191      S1195   1.805       .  S
C1192      C1193   1.401       .  A
C1193      H1200   1.084       .  S
C1193      C1194   1.400       .  A
C1194      S1196   1.802       .  S
S1195      H1198   1.406       .  S
S1196      H1197   1.407       .  S
C1201      C1202   1.400       .  A
C1201      C1206   1.410       .  A
C1202      H1211   1.084       .  S
C1202      C1203   1.400       .  A
C1203      C1204   1.421       .  A
C1203      S1207   1.803       .  S
C1204      C1205   1.411       .  A
C1205      H1212   1.083       .  S
C1205      C1206   1.400       .  A
S1207      H1210   1.408       .  S
S1208      H1209   1.405       .  S
C1213      C1214   1.399       .  A
C1213      C1218   1.409       .  A
C1214      H1223   1.084       .  S
C1214      C1215   1.398       .  A
C1215      C1216   1.419       .  A
C1215      S1219   1.803       .  S
C1216      C1217   1.406       .  A
C1217      H1224   1.083       .  S
C1217      C1218   1.395       .  A
C1218      S1220   1.805       .  S
S1219      H1222   1.408       .  S
S1220      H1221   1.406       .  S
C1225      C1226   1.400       .  A
C1225      C1230   1.409       .  A
C1226      H2507   1.084       .  S
C1226      C1227   1.397       .  A
C1227      C1228   1.420       .  A
C1227      S2503   1.802       .  S
C1228      C1229   1.411       .  A
C1229      H1236   1.083       .  S
C1229      C1230   1.400       .  A
C1230      S1232   1.804       .  S
S1231      C2499   1.804   1_455  S
S1231      H2506   1.408       .  S
S1232      H1233   1.404       .  S
H1234      S2503   1.408       .  S
H1235      C2498   1.085   1_455  S
C1237      C1238   1.409       .  A
C1237      C1242   1.418       .  A
C1238      H1247   1.083       .  S
C1238      C1239   1.398       .  A
C1239      C1240   1.409       .  A
C1239      S1243   1.805       .  S
C1240      C1241   1.403       .  A
C1241      H1248   1.083       .  S
C1241      C1242   1.406       .  A
C1242      S1244   1.809       .  S
S1243      H1246   1.405       .  S
S1244      H1245   1.406       .  S
C1249      C1250   1.403       .  A
C1249      C1254   1.409       .  A
C1250      H1259   1.084       .  S
C1250      C1251   1.402       .  A
C1251      C1252   1.419       .  A
C1251      S1255   1.803       .  S
C1252      C1253   1.411       .  A
C1253      H1260   1.083       .  S
C1253      C1254   1.399       .  A
C1254      S1256   1.805       .  S
S1255      H1258   1.408       .  S
S1256      H1257   1.405       .  S
C1261      C1262   1.404       .  A
C1261      C1266   1.418       .  A
C1262      H1271   1.084       .  S
C1262      C1263   1.394       .  A
C1263      C1264   1.411       .  A
C1263      S2539   1.805       .  S
C1264      C1265   1.400       .  A
C1265      H1272   1.084       .  S
C1265      C1266   1.400       .  A
C1266      S1268   1.803       .  S
S1267      C2535   1.805   1_455  S
S1267      H1270   1.406       .  S
S1268      H1269   1.407       .  S
C1273      N1274   1.359       .  A
C1273      N1278   1.356       .  A
C1273      C1897   1.477       .  S
N1274      C1275   1.356       .  A
C1275      N1276   1.355       .  A
C1275      C1297   1.462       .  S
N1276      C1277   1.356       .  A
C1277      N1278   1.354       .  A
C1277      C1404   1.457       .  S
C1279      N1280   1.361       .  A
C1279      N1284   1.362       .  A
C1279      C1888   1.490       .  S
N1280      C1281   1.356       .  A
C1281      N1282   1.353       .  A
C1281      C1374   1.459       .  S
N1282      C1283   1.354       .  A
C1283      N1284   1.359       .  A
C1283      C1327   1.459       .  S
C1285      N1286   1.363       .  A
C1285      N1290   1.357       .  A
C1285      C1873   1.490       .  S
N1286      C1287   1.360       .  A
C1287      N1288   1.358       .  A
C1287      C1414   1.468       .  S
N1288      C1289   1.357       .  A
C1289      N1290   1.353       .  A
C1289      C1347   1.461       .  S
C1291      N1292   1.358       .  A
C1291      N1296   1.355       .  A
C1291      C1864   1.484       .  S
N1292      C1293   1.359       .  A
C1293      N1294   1.360       .  A
C1293      C1424   1.470       .  S
N1294      C1295   1.361       .  A
C1295      N1296   1.355       .  A
C1295      C1337   1.464       .  S
C1297      C1334   1.457       .  S
N1298      N1315   1.323       .  A
N1298     Co1335   2.073       .  S
C1299      N1960   1.338       .  A
C1299      H1344   1.081       .  S
H1300      C1341   1.082       .  S
C1301      N1325   1.336       .  A
C1301      C1305   1.453       .  S
C1301      H1330   1.082       .  S
Co1302     N1320   2.087       .  S
Co1302     N1310   2.076       .  S
Co1302     N1342   2.075       .  S
Co1302     N1318   2.086       .  S
N1303      C1341   1.343       .  A
N1303     Co1304   2.085       .  S
Co1304     N1307   2.082       .  S
Co1304     N1324   2.073       .  S
Co1304     N1311   2.086       .  S
Co1304    Cl1346   2.470       .  S
C1305      N1343   1.350       .  A
C1305      C1352   1.461       .  S
N1306      N1313   1.318       .  A
N1306      N1336   1.323       .  A
N1306     Co1339   2.080       .  S
N1307      N1325   1.320       .  A
N1307      N1343   1.326       .  A
N1308      C1337   1.348       .  A
N1308      N1954   1.325   1_545  A
H1309      C1334   1.082       .  S
N1310      N1331   1.321       .  A
N1311      N1329   1.320       .  A
N1311      N1952   1.325       .  A
C1312      N1316   1.352       .  A
C1312      C1340   1.455       .  S
C1312      C1370   1.461       .  S
N1313      C1328   1.341       .  A
N1313     Co1335   2.084       .  S
C1314      N1978   1.337   1_545  A
C1314      C1317   1.454       .  S
C1314      H1348   1.082       .  S
N1316      N1947   1.325       .  A
C1317      C1358   1.463       .  S
N1318      N1944   1.325       .  A
N1319      C1981   1.341       .  A
N1319      N1321   1.319       .  A
N1319     Co1335   2.079       .  S
N1320      C1334   1.341       .  A
N1321      N1985   1.325       .  A
N1321     Co1339   2.087       .  S
H1322      C1345   1.082       .  S
H1323      C1340   1.082       .  S
N1324      C1935   1.338       .  A
N1325     Co1339   2.078       .  S
N1326      N1974   1.326       .  A
N1326     Co1335   2.080       .  S
C1327      N1331   1.345       .  A
C1328      C1347   1.461       .  S
C1328      H1332   1.082       .  S
N1329      C1976   1.339       .  A
N1329     Co1339   2.077       .  S
C1333      N1349   1.347       .  A
C1333      C1345   1.458       .  S
C1333      C1364   1.462       .  S
Co1335    Cl1346   2.469       .  S
N1336      C1347   1.348       .  A
N1338      N1962   1.326   1_545  A
Co1339    Cl1346   2.427       .  S
C1340      N1965   1.338       .  A
N1342      C1950   1.335       .  A
C1345      N1955   1.341   1_545  A
N1349      N1957   1.323   1_545  A
C1350      N1351   1.361       .  A
C1350      N1355   1.357       .  A
C1350      C1852   1.472       .  S
N1351      C1352   1.357       .  A
C1352      N1353   1.354       .  A
N1353      C1354   1.353       .  A
C1354      N1355   1.352       .  A
C1354      C1394   1.455       .  S
C1356      N1357   1.364       .  A
C1356      N1361   1.361       .  A
C1356      C1840   1.498       .  S
N1357      C1358   1.359       .  A
C1358      N1359   1.353       .  A
N1359      C1360   1.353       .  A
C1360      N1361   1.355       .  A
C1360      C1382   1.460       .  S
C1362      N1363   1.358       .  A
C1362      N1367   1.359       .  A
C1362      C1825   1.481       .  S
N1363      C1364   1.356       .  A
C1364      N1365   1.357       .  A
N1365      C1366   1.357       .  A
C1366      N1367   1.356       .  A
C1366      C1389   1.464       .  S
C1368      N1369   1.358       .  A
C1368      N1373   1.362       .  A
C1368      C1813   1.483       .  S
N1369      C1370   1.353       .  A
C1370      N1371   1.356       .  A
N1371      C1372   1.357       .  A
C1372      N1373   1.359       .  A
C1372      C1410   1.462       .  S
C1374      N1392   1.349       .  A
C1374      C1411   1.455       .  S
N1375      N1392   1.325       .  A
N1375      N1397   1.319       .  A
N1375     Co1412   2.080       .  S
C1376      N1401   1.345       .  A
C1376      C1414   1.462       .  S
C1376      H1421   1.082       .  S
H1377      C1418   1.082       .  S
C1378      N1402   1.334       .  A
C1378      C1382   1.449       .  S
C1378      H1407   1.082       .  S
Co1379     N1397   2.078       .  S
Co1379     N1387   2.073       .  S
Co1379     N1419   2.071       .  S
Co1379     N1395   2.084       .  S
Co1379    Cl1423   2.425       .  S
N1380      C1418   1.341       .  A
N1380      N1387   1.320       .  A
N1380     Co1381   2.080       .  S
Co1381     N1384   2.095       .  S
Co1381     N1401   2.093       .  S
Co1381     N1388   2.080       .  S
Co1381    Cl1423   2.472       .  S
C1382      N1420   1.353       .  A
N1383      N1390   1.320       .  A
N1383      N1413   1.328       .  A
N1383     Co1416   2.098       .  S
N1384      N1402   1.320       .  A
N1384      N1420   1.328       .  A
N1385      C1414   1.348       .  A
N1385      N1395   1.324       .  A
H1386      C1411   1.082       .  S
N1387      N1408   1.321       .  A
N1388      N1406   1.322       .  A
N1388      N1393   1.324       .  A
C1389      N1393   1.348       .  A
C1389      C1417   1.458       .  S
N1390      C1405   1.338       .  A
N1390     Co1412   2.076       .  S
C1391      N1419   1.336       .  A
C1391      C1394   1.451       .  S
C1391      H1425   1.082       .  S
C1394      N1415   1.349       .  A
N1395      N1401   1.320       .  A
N1396      C1422   1.345       .  A
N1396      N1398   1.319       .  A
N1396     Co1412   2.089       .  S
N1397      C1411   1.338       .  A
N1398      N1426   1.321       .  A
N1398     Co1416   2.074       .  S
H1399      C1422   1.082       .  S
H1400      C1417   1.082       .  S
N1402     Co1416   2.066       .  S
N1403      N1415   1.324       .  A
N1403      N1419   1.321       .  A
N1403     Co1412   2.079       .  S
C1404      N1408   1.345       .  A
C1404      C1418   1.459       .  S
C1405      C1424   1.456       .  S
C1405      H1409   1.082       .  S
N1406      C1417   1.341       .  A
N1406     Co1416   2.092       .  S
C1410      N1426   1.345       .  A
C1410      C1422   1.462       .  S
Co1412    Cl1423   2.471       .  S
N1413      C1424   1.352       .  A
Co1416    Cl1423   2.427       .  S
N1427      C1432   1.351       .  A
N1427      C1431   1.351       .  A
N1427      H1459   1.038       .  S
N1428      C1435   1.349       .  A
N1428      C1436   1.348       .  A
N1429      C1434   1.356       .  A
N1429      C1433   1.357       .  A
N1429      H1460   1.033       .  S
N1430      C2073   1.353       .  A
N1430      C2074   1.350       .  A
C1431      C1439   1.387       .  A
C1431      C1447   1.409       .  A
C1432      C2084   1.410       .  A
C1432      C1440   1.386       .  A
C1433      C1441   1.386       .  A
C1433      C1450   1.424       .  A
C1434      C2085   1.427       .  A
C1434      C1442   1.389       .  A
C1435      C1447   1.407       .  A
C1435      C1443   1.384       .  A
C1436      C1450   1.412       .  A
C1436      C1444   1.388       .  A
C1437      N2066   1.353   1_545  A
C1437      C1445   1.384       .  A
C1437      C1448   1.413       .  A
C1438      N2066   1.351   1_545  A
C1438      C1446   1.389       .  A
C1438      C1449   1.419       .  A
C1439      H1451   1.082       .  S
C1439      C1440   1.372       .  A
C1440      H1452   1.082       .  S
C1441      H1453   1.082       .  S
C1441      C1442   1.378       .  A
C1442      H1454   1.082       .  S
C1443      H1455   1.082       .  S
C1443      C1444   1.374       .  A
C1444      H1456   1.082       .  S
C1445      H1457   1.082       .  S
C1445      C1446   1.376       .  A
C1446      H1458   1.082       .  S
C1447      C1801   1.480       .  S
C1448      C1789   1.487       .  S
C1448      C2068   1.412   1_545  A
C1449      C1837   1.492       .  S
C1449      C2070   1.425   1_545  A
C1450      C1876   1.488       .  S
N1461      C1466   1.350       .  A
N1461      C1465   1.349       .  A
N1461      H1493   1.037       .  S
N1462      C1469   1.349   1_556  A
N1462      C1470   1.348       .  A
N1463      C1468   1.354       .  A
N1463      C1467   1.355       .  A
N1463      H1494   1.036       .  S
N1464      C1471   1.351   1_556  A
N1464      C1472   1.348       .  A
C1465      C1473   1.387       .  A
C1465      C1481   1.410       .  A
C1466      C1474   1.388       .  A
C1467      C1475   1.388       .  A
C1467      C1484   1.421       .  A
C1468      C1476   1.386       .  A
C1469      C1481   1.407       .  A
C1469      C1477   1.385       .  A
C1470      C1484   1.411       .  A
C1470      C1478   1.388       .  A
C1471      C1479   1.384       .  A
C1471      C1482   1.410       .  A
C1472      C1480   1.388       .  A
C1472      C1483   1.414       .  A
C1473      H1485   1.083       .  S
C1473      C1474   1.373       .  A
C1474      H1486   1.082       .  S
C1475      H1487   1.082       .  S
C1475      C1476   1.376       .  A
C1476      H1488   1.082       .  S
C1477      H1489   1.082       .  S
C1477      C1478   1.372   1_554  A
C1478      H1490   1.082       .  S
C1479      H1491   1.082       .  S
C1479      C1480   1.378   1_554  A
C1480      H1492   1.082       .  S
C1481      C1849   1.478       .  S
C1482      C1861   1.483       .  S
C1483      C1780   1.487       .  S
C1484      C1765   1.487       .  S
N1495      C1500   1.348       .  A
N1495      C1499   1.350       .  A
N1495      H1527   1.037       .  S
N1497      C1502   1.357       .  A
N1497      C1501   1.356       .  A
N1497      H1528   1.034       .  S
N1498      C1505   1.351       .  A
N1498      C1506   1.350       .  A
C1499      C1507   1.386       .  A
C1500      C1516   1.408       .  A
C1500      C1508   1.388       .  A
C1501      C1509   1.386       .  A
C1502      C1517   1.426       .  A
C1502      C1510   1.389       .  A
C1503      C1515   1.404       .  A
C1503      C1511   1.384       .  A
C1504      C1518   1.410       .  A
C1504      C1512   1.388       .  A
C1505      C1513   1.384       .  A
C1505      C1516   1.412       .  A
C1506      C1514   1.388       .  A
C1506      C1517   1.417       .  A
C1507      H1519   1.083       .  S
C1507      C1508   1.372       .  A
C1508      H1520   1.083       .  S
C1509      H1521   1.082       .  S
C1509      C1510   1.376       .  A
C1510      H1522   1.082       .  S
C1511      H1523   1.082       .  S
C1511      C1512   1.374       .  A
C1512      H1524   1.082       .  S
C1513      H1525   1.082       .  S
C1513      C1514   1.375       .  A
C1514      H1526   1.082       .  S
C1515      C1900   1.475       .  S
C1516      C1828   1.482       .  S
C1517      C1741   1.493       .  S
C1518      C1756   1.487       .  S
N1529      C1534   1.352       .  A
N1529      C1533   1.351       .  A
N1529      H1561   1.037       .  S
N1530      C2173   1.351   1_554  A
N1530      C2174   1.350       .  A
N1531      C1536   1.354       .  A
N1531      C1535   1.355       .  A
N1531      H1562   1.037       .  S
N1532      C1539   1.351   1_554  A
N1532      C1540   1.349       .  A
C1533      C1541   1.387       .  A
C1533      C2185   1.412       .  A
C1534      C1550   1.412       .  A
C1534      C1542   1.387       .  A
C1535      C1543   1.387       .  A
C1535      C2188   1.419       .  A
C1536      C1551   1.418       .  A
C1536      C1544   1.387       .  A
C1537      N2166   1.351   1_546  A
C1537      C1549   1.411       .  A
C1537      C1545   1.385       .  A
C1538      N2166   1.350   1_545  A
C1538      C1552   1.414       .  A
C1538      C1546   1.387       .  A
C1539      C1547   1.385       .  A
C1539      C1550   1.410       .  A
C1540      C1548   1.387       .  A
C1540      C1551   1.411       .  A
C1541      H1553   1.082       .  S
C1541      C1542   1.372       .  A
C1542      H1554   1.082       .  S
C1543      H1555   1.082       .  S
C1543      C1544   1.376       .  A
C1544      H1556   1.082       .  S
C1545      H1557   1.082       .  S
C1545      C1546   1.375   1_556  A
C1546      H1558   1.082       .  S
C1547      H1559   1.082       .  S
C1547      C1548   1.376   1_556  A
C1548      H1560   1.082       .  S
C1549      C1717   1.486       .  S
C1549      C2169   1.414   1_545  A
C1550      C1729   1.485       .  S
C1551      C1885   1.486       .  S
C1552      C1816   1.490       .  S
C1552      C2171   1.419   1_545  A
C1563      N1564   1.360       .  A
C1563      N1568   1.361       .  A
C1563      C1732   1.489       .  S
N1564      C1565   1.356       .  A
C1565      N1566   1.355       .  A
C1565      C1599   1.466       .  S
N1566      C1567   1.357       .  A
C1567      N1568   1.360       .  A
C1567      C1694   1.466       .  S
C1569      N1570   1.361       .  A
C1569      N1574   1.362       .  A
C1569      C1777   1.485       .  S
N1570      C1571   1.355       .  A
C1571      N1572   1.351       .  A
C1571      C1672   1.456       .  S
N1572      C1573   1.352       .  A
C1573      N1574   1.358       .  A
C1573      C1619   1.457       .  S
C1575      N1576   1.362       .  A
C1575      N1580   1.360       .  A
C1575      C1720   1.489       .  S
N1576      C1577   1.361       .  A
C1577      N1578   1.357       .  A
C1577      C1635   1.468       .  S
N1578      C1579   1.355       .  A
C1579      N1580   1.355       .  A
C1579      C1679   1.464       .  S
C1581      N1582   1.362       .  A
C1581      N1586   1.360       .  A
C1581      C1768   1.496       .  S
N1582      C1583   1.357       .  A
C1583      N1584   1.357       .  A
C1583      C1704   1.465       .  S
N1584      C1585   1.357       .  A
C1585      N1586   1.357       .  A
C1585      C1649   1.466       .  S
C1587      N1588   1.364       .  A
C1587      N1592   1.361       .  A
C1587      C1744   1.497       .  S
N1588      C1589   1.358       .  A
C1589      N1590   1.355       .  A
C1589      C1700   1.465       .  S
N1590      C1591   1.355       .  A
C1591      N1592   1.357       .  A
C1591      C1614   1.464       .  S
C1593      N1594   1.359       .  A
C1593      N1598   1.358       .  A
C1593      C1792   1.495       .  S
N1594      C1595   1.359       .  A
C1595      N1596   1.359       .  A
C1595      C1714   1.467       .  S
N1596      C1597   1.359       .  A
C1597      N1598   1.359       .  A
C1597      C1639   1.470       .  S
C1599      N1617   1.348       .  A
C1599      C1636   1.458       .  S
N1600      N1617   1.324       .  A
N1600      N1622   1.322       .  A
N1600     Co1637   2.081       .  S
C1601      N1626   1.339       .  A
C1601      C1639   1.456       .  S
C1601      H1646   1.081       .  S
H1602      C1643   1.082       .  S
C1603      N1627   1.338       .  A
C1603      C1607   1.456       .  S
C1603      H1632   1.082       .  S
Co1604     N1622   2.093       .  S
Co1604     N1612   2.074       .  S
Co1604     N1644   2.069       .  S
Co1604     N1620   2.100       .  S
Co1604    Cl1648   2.427       .  S
N1605      C1643   1.346       .  A
N1605      N1612   1.320       .  A
N1605     Co1606   2.095       .  S
Co1606     N1609   2.081       .  S
Co1606     N1626   2.076       .  S
Co1606     N1613   2.091       .  S
Co1606    Cl1648   2.476       .  S
C1607      N1645   1.349       .  A
C1607      C1660   1.464       .  S
N1608      N1615   1.320       .  A
N1608      N1638   1.324       .  A
N1608     Co1641   2.081       .  S
N1609      N1627   1.321       .  A
N1609      N1645   1.326       .  A
N1610      C1639   1.352       .  A
N1610      N1620   1.328       .  A
H1611      C1636   1.082       .  S
N1612      N1633   1.321       .  A
N1613      N1631   1.320       .  A
N1613      N1618   1.327       .  A
C1614      N1618   1.351       .  A
C1614      C1642   1.455       .  S
N1615      C1630   1.344       .  A
N1615     Co1637   2.092       .  S
C1616      N1644   1.334       .  A
C1616      C1619   1.451       .  S
C1616      H1650   1.082       .  S
C1619      N1640   1.350       .  A
N1620      N1626   1.320       .  A
N1621      C1647   1.342       .  A
N1621      N1623   1.321       .  A
N1621     Co1637   2.080       .  S
N1622      C1636   1.342       .  A
N1623      N1651   1.324       .  A
N1623     Co1641   2.093       .  S
H1624      C1647   1.082       .  S
H1625      C1642   1.082       .  S
N1627     Co1641   2.088       .  S
N1628      N1640   1.327       .  A
N1628      N1644   1.320       .  A
N1628     Co1637   2.086       .  S
C1629      N1633   1.345       .  A
C1629      C1643   1.464       .  S
C1629      C1654   1.463       .  S
C1630      C1649   1.462       .  S
C1630      H1634   1.082       .  S
N1631      C1642   1.338       .  A
N1631     Co1641   2.078       .  S
C1635      N1651   1.350       .  A
C1635      C1647   1.458       .  S
Co1637    Cl1648   2.476       .  S
N1638      C1649   1.347       .  A
Co1641    Cl1648   2.426       .  S
C1652      N1653   1.361       .  A
C1652      N1657   1.361       .  A
C1652      C1753   1.488       .  S
N1653      C1654   1.357       .  A
C1654      N1655   1.356       .  A
N1655      C1656   1.356       .  A
C1656      N1657   1.356       .  A
C1656      C1664   1.463       .  S
C1658      N1659   1.362       .  A
C1658      N1663   1.359       .  A
C1658      C1804   1.485       .  S
N1659      C1660   1.359       .  A
C1660      N1661   1.354       .  A
N1661      C1662   1.353       .  A
C1662      N1663   1.354       .  A
C1662      C1684   1.459       .  S
C1664      N1682   1.351       .  A
C1664      C1701   1.455       .  S
N1665      N1682   1.326       .  A
N1665      N1687   1.319       .  A
C1666      N1691   1.344       .  A
C1666      C1704   1.462       .  S
C1666      H1711   1.082       .  S
H1667      C1708   1.082       .  S
C1668      N1692   1.335   1_655  A
C1668      C1672   1.452       .  S
C1668      H1697   1.082       .  S
Co1669     N1709   2.077       .  S
Co1669     N1685   2.080       .  S
Co1669    Cl1713   2.425       .  S
N1670      C1708   1.343       .  A
N1670      N1677   1.320       .  A
Co1671     N1691   2.090       .  S
Co1671     N2314   2.082       .  S
Co1671    Cl1713   2.472       .  S
C1672      N1710   1.349       .  A
N1673      N1680   1.320       .  A
N1673      N1703   1.327       .  A
N1674      N1692   1.320       .  A
N1674      N1710   1.325   1_455  A
N1675      C1704   1.347       .  A
N1675      N1685   1.323       .  A
H1676      C1701   1.082       .  S
N1677      N1698   1.323       .  A
N1678      N1696   1.321       .  A
N1678      N1683   1.324       .  A
N1678     Co2307   2.081   1_545  S
C1679      N1683   1.349       .  A
C1679      C1707   1.457       .  S
N1680      C1695   1.338       .  A
C1681      N1709   1.337       .  A
C1681      C1684   1.453       .  S
C1681      H1715   1.082       .  S
C1684      N1705   1.349       .  A
N1685      N1691   1.320       .  A
N1686      C1712   1.345       .  A
N1686      N1688   1.320       .  A
N1686     Co2338   2.091   1_545  S
N1687      C1701   1.338       .  A
N1688      N1716   1.322       .  A
N1688     Co1706   2.080       .  S
H1689      C1712   1.082   1_565  S
H1690      C1707   1.082       .  S
N1693      N1705   1.324       .  A
N1693      N1709   1.321       .  A
N1693     Co1702   2.079       .  S
C1694      N1698   1.348       .  A
C1694      C1708   1.459       .  S
C1695      C1714   1.455       .  S
C1695      H1699   1.082   1_545  S
N1696      C1707   1.341       .  A
N1696     Co1706   2.087       .  S
C1700      N1716   1.347       .  A
C1700      C1712   1.462       .  S
Co1702     N2322   2.091       .  S
Co1702    Cl1713   2.473       .  S
N1703      C1714   1.351       .  A
Co1706    Cl2349   2.428   1_545  S
Cl1713    Co2342   2.429       .  S
C1717      C1718   1.402       .  A
C1717      C1722   1.409       .  A
C1718      H1727   1.083       .  S
C1718      C1719   1.407       .  A
C1719      C1720   1.418       .  A
C1719      S1723   1.807       .  S
C1720      C1721   1.407       .  A
C1721      H1728   1.083       .  S
C1721      C1722   1.395       .  A
C1722      S2360   1.805   1_545  S
S1723      H1726   1.407       .  S
S1724      C2358   1.805       .  S
S1724      H1725   1.406       .  S
C1729      C1730   1.402       .  A
C1729      C1734   1.409       .  A
C1730      H1739   1.083       .  S
C1730      C1731   1.407       .  A
C1731      C1732   1.419       .  A
C1731      S1735   1.808       .  S
C1732      C1733   1.407       .  A
C1733      H1740   1.083       .  S
C1733      C1734   1.395       .  A
C1734      S1736   1.805       .  S
S1735      H1738   1.407       .  S
S1736      H1737   1.406       .  S
C1741      C1742   1.403       .  A
C1741      C1746   1.410       .  A
C1742      H1751   1.084       .  S
C1742      C1743   1.404       .  A
C1743      C1744   1.421       .  A
C1743      S1747   1.803       .  S
C1744      C1745   1.409       .  A
C1745      H1752   1.083       .  S
C1745      C1746   1.398       .  A
C1746      S1748   1.804       .  S
S1747      H1750   1.408       .  S
S1748      H1749   1.406       .  S
C1753      C1754   1.409       .  A
C1753      C1758   1.417       .  A
C1754      H1763   1.083       .  S
C1754      C1755   1.398       .  A
C1755      C1756   1.409       .  A
C1756      C1757   1.403       .  A
C1757      H1764   1.084       .  S
C1757      C1758   1.400       .  A
C1758      S1760   1.803       .  S
S1759      H1762   1.406       .  S
S1760      H1761   1.407       .  S
C1765      C1766   1.401       .  A
C1765      C1770   1.409       .  A
C1766      H1775   1.084       .  S
C1766      C1767   1.400       .  A
C1767      C1768   1.421       .  A
C1767      S1771   1.803       .  S
C1768      C1769   1.411       .  A
C1769      H1776   1.083       .  S
C1769      C1770   1.398       .  A
C1770      S1772   1.805       .  S
S1771      H1774   1.408       .  S
S1772      H1773   1.405       .  S
C1777      C1778   1.407       .  A
C1777      C1782   1.415       .  A
C1778      H1787   1.084       .  S
C1778      C1779   1.395       .  A
C1779      C1780   1.410       .  A
C1779      S1783   1.806   1_655  S
C1780      C1781   1.403       .  A
C1781      H1788   1.083       .  S
C1781      C1782   1.405       .  A
C1782      S1784   1.808       .  S
S1783      H1786   1.406       .  S
S1784      H1785   1.407       .  S
C1789      C1790   1.401       .  A
C1789      C1794   1.411       .  A
C1790      H1799   1.085       .  S
C1790      C1791   1.398       .  A
C1791      C1792   1.420       .  A
C1791      S1795   1.802       .  S
C1792      C1793   1.412       .  A
C1793      H1800   1.083       .  S
C1793      C1794   1.404       .  A
C1794      S2432   1.806   1_545  S
S1795      H1798   1.408       .  S
S1796      C2430   1.803       .  S
S1796      H1797   1.405       .  S
C1801      C1802   1.401       .  A
C1801      C1806   1.408       .  A
C1802      H1811   1.084       .  S
C1802      C1803   1.401       .  A
C1803      C1804   1.418       .  A
C1803      S1807   1.802       .  S
C1804      C1805   1.407       .  A
C1805      H1812   1.083       .  S
C1805      C1806   1.394       .  A
C1806      S1808   1.805       .  S
S1807      H1810   1.408       .  S
S1808      H1809   1.405       .  S
C1813      C1814   1.408       .  A
C1813      C1818   1.414       .  A
C1814      H1823   1.084       .  S
C1814      C1815   1.396       .  A
C1815      C1816   1.412       .  A
C1815      S2455   1.806   1_545  S
C1816      C1817   1.405       .  A
C1817      H1824   1.084       .  S
C1817      C1818   1.402       .  A
C1818      S1820   1.803       .  S
S1819      C2451   1.805       .  S
S1819      H1822   1.406       .  S
S1820      H1821   1.407       .  S
C1825      C1826   1.405       .  A
C1825      C1830   1.418       .  A
C1826      H1835   1.084       .  S
C1826      C1827   1.396       .  A
C1827      C1828   1.413       .  A
C1827      S1831   1.806       .  S
C1828      C1829   1.400       .  A
C1829      H1836   1.084       .  S
C1829      C1830   1.399       .  A
C1830      S1832   1.803       .  S
S1831      H1834   1.406       .  S
S1832      H1833   1.407       .  S
C1837      C1838   1.401       .  A
C1837      C1842   1.411       .  A
C1838      H1847   1.084       .  S
C1838      C1839   1.401       .  A
C1839      C1840   1.422       .  A
C1839      S1843   1.803       .  S
C1840      C1841   1.411       .  A
C1841      H1848   1.083       .  S
C1841      C1842   1.401       .  A
C1842      S2480   1.805   1_545  S
S1843      H1846   1.408       .  S
S1844      C2478   1.804       .  S
S1844      H1845   1.406       .  S
C1849      C1850   1.401       .  A
C1849      C1854   1.411       .  A
C1850      H1859   1.084       .  S
C1850      C1851   1.398       .  A
C1851      C1852   1.413       .  A
C1851      S1855   1.802       .  S
C1852      C1853   1.403       .  A
C1853      H1860   1.084       .  S
C1853      C1854   1.392       .  A
C1854      S1856   1.805       .  S
S1855      H1858   1.408       .  S
S1856      H1857   1.406       .  S
C1861      C1862   1.402       .  A
C1861      C1866   1.412       .  A
C1862      C1863   1.395       .  A
C1863      C1864   1.416       .  A
C1864      C1865   1.408       .  A
C1865      H1872   1.084       .  S
C1865      C1866   1.402       .  A
C1866      S1868   1.807       .  S
S1868      H1869   1.402       .  S
C1873      C1874   1.411       .  A
C1873      C1878   1.414       .  A
C1874      H1883   1.083       .  S
C1874      C1875   1.397       .  A
C1875      C1876   1.409       .  A
C1875      S1879   1.806       .  S
C1876      C1877   1.405       .  A
C1877      H1884   1.083       .  S
C1877      C1878   1.405       .  A
C1878      S1880   1.807       .  S
S1879      H1882   1.405       .  S
S1880      H1881   1.407       .  S
C1885      C1886   1.402       .  A
C1885      C1890   1.409       .  A
C1886      H1895   1.084       .  S
C1886      C1887   1.402       .  A
C1887      C1888   1.418       .  A
C1887      S1891   1.802       .  S
C1888      C1889   1.410       .  A
C1889      H1896   1.083       .  S
C1889      C1890   1.397       .  A
C1890      S1892   1.805       .  S
S1891      H1894   1.407       .  S
S1892      H1893   1.406       .  S
C1897      C1898   1.404       .  A
C1897      C1902   1.419       .  A
C1898      H1907   1.084       .  S
C1898      C1899   1.393       .  A
C1899      C1900   1.410       .  A
C1900      C1901   1.398       .  A
C1901      H1908   1.084       .  S
C1901      C1902   1.398       .  A
C1902      S1904   1.803       .  S
S1903      H1906   1.405       .  S
S1904      H1905   1.407       .  S
C1909      N1910   1.358       .  A
C1909      N1914   1.360       .  A
C1909      C2533   1.482       .  S
N1910      C1911   1.355       .  A
C1911      N1912   1.355       .  A
C1911      C1933   1.461       .  S
N1912      C1913   1.357       .  A
C1913      N1914   1.358       .  A
C1913      C2040   1.462       .  S
C1915      N1916   1.360       .  A
C1915      N1920   1.363       .  A
C1915      C2524   1.487       .  S
N1916      C1917   1.355       .  A
C1917      N1918   1.355       .  A
C1917      C2010   1.461       .  S
N1918      C1919   1.356       .  A
C1919      N1920   1.360       .  A
C1919      C1963   1.464       .  S
C1921      N1922   1.360       .  A
C1921      N1926   1.360       .  A
C1921      C2509   1.493       .  S
N1922      C1923   1.358       .  A
C1923      N1924   1.357       .  A
C1923      C2050   1.464       .  S
N1924      C1925   1.357       .  A
C1925      N1926   1.356       .  A
C1925      C1983   1.463       .  S
C1927      N1928   1.357       .  A
C1927      N1932   1.354       .  A
C1927      C2500   1.481       .  S
N1928      C1929   1.358       .  A
C1929      N1930   1.359       .  A
C1929      C2060   1.464       .  S
N1930      C1931   1.358       .  A
C1931      N1932   1.354       .  A
C1931      C1973   1.461       .  S
C1933      C1970   1.457       .  S
N1934      N1951   1.323       .  A
N1934     Co1971   2.074       .  S
C1935      H1980   1.081       .  S
H1936      C1977   1.082       .  S
C1937      N1961   1.336       .  A
C1937      C1941   1.452       .  S
C1937      H1966   1.082       .  S
Co1938     N1956   2.085       .  S
Co1938     N1946   2.079       .  S
Co1938     N1978   2.077       .  S
Co1938     N1954   2.085       .  S
N1939      C1977   1.346       .  A
N1939     Co1940   2.097       .  S
Co1940     N1943   2.084       .  S
Co1940     N1960   2.075   1_565  S
Co1940     N1947   2.092   1_565  S
Co1940    Cl1982   2.471       .  S
C1941      N1979   1.350       .  A
C1941      C1988   1.460       .  S
N1942      N1949   1.319       .  A
N1942      N1972   1.323       .  A
N1942     Co1975   2.082       .  S
N1943      N1961   1.321       .  A
N1943      N1979   1.326       .  A
N1944      C1973   1.348       .  A
H1945      C1970   1.082       .  S
N1946      N1967   1.322       .  A
N1947      N1965   1.320       .  A
C1948      N1952   1.350       .  A
C1948      C1976   1.456       .  S
C1948      C2006   1.461       .  S
N1949      C1964   1.342       .  A
N1949     Co1971   2.087       .  S
C1950      C1953   1.453       .  S
C1950      H1984   1.082       .  S
C1953      C1994   1.462       .  S
N1955      N1957   1.319       .  A
N1955     Co1971   2.077       .  S
N1956      C1970   1.340       .  A
N1957     Co1975   2.079       .  S
H1958      C1981   1.082       .  S
H1959      C1976   1.082       .  S
N1961     Co1975   2.074       .  S
N1962     Co1971   2.084       .  S
C1963      N1967   1.346       .  A
C1964      C1983   1.461       .  S
C1964      H1968   1.082       .  S
N1965     Co1975   2.075   1_545  S
C1969      N1985   1.349       .  A
C1969      C1981   1.458       .  S
C1969      C2000   1.467       .  S
Co1971    Cl1982   2.472       .  S
N1972      C1983   1.348       .  A
Co1975    Cl1982   2.428       .  S
C1986      N1987   1.359       .  A
C1986      N1991   1.360       .  A
C1986      C2488   1.476       .  S
N1987      C1988   1.355       .  A
C1988      N1989   1.355       .  A
N1989      C1990   1.354       .  A
C1990      N1991   1.354       .  A
C1990      C2030   1.461       .  S
C1992      N1993   1.365       .  A
C1992      N1997   1.362       .  A
C1992      C2476   1.497       .  S
N1993      C1994   1.359       .  A
C1994      N1995   1.353       .  A
N1995      C1996   1.351       .  A
C1996      N1997   1.356       .  A
C1996      C2018   1.461       .  S
C1998      N1999   1.359       .  A
C1998      N2003   1.360       .  A
C1998      C2461   1.486       .  S
N1999      C2000   1.358       .  A
C2000      N2001   1.358       .  A
N2001      C2002   1.358       .  A
C2002      N2003   1.358       .  A
C2002      C2025   1.468       .  S
C2004      N2005   1.358       .  A
C2004      N2009   1.364       .  A
C2004      C2449   1.487       .  S
N2005      C2006   1.353       .  A
C2006      N2007   1.355       .  A
N2007      C2008   1.357       .  A
C2008      N2009   1.361       .  A
C2008      C2046   1.467       .  S
C2010      N2028   1.351       .  A
C2010      C2047   1.455       .  S
N2011      N2028   1.326       .  A
N2011      N2033   1.319       .  A
N2011     Co2048   2.088       .  S
C2012      N2037   1.343       .  A
C2012      C2050   1.461       .  S
C2012      H2057   1.082       .  S
H2013      C2054   1.082       .  S
C2014      N2038   1.337       .  A
C2014      C2018   1.453       .  S
C2014      H2043   1.082       .  S
Co2015     N2033   2.076       .  S
Co2015     N2023   2.081       .  S
Co2015     N2055   2.079       .  S
Co2015     N2031   2.080       .  S
Co2015    Cl2059   2.425       .  S
N2016      C2054   1.342       .  A
N2016      N2023   1.320       .  A
N2016     Co2017   2.082       .  S
Co2017     N2020   2.087       .  S
Co2017     N2037   2.090       .  S
Co2017     N2024   2.086       .  S
Co2017    Cl2059   2.475       .  S
C2018      N2056   1.350       .  A
N2019      N2026   1.320       .  A
N2019      N2049   1.326       .  A
N2019     Co2052   2.093       .  S
N2020      N2038   1.320       .  A
N2020      N2056   1.327       .  A
N2021      C2050   1.347       .  A
N2021      N2031   1.323       .  A
H2022      C2047   1.082       .  S
N2023      N2044   1.323       .  A
N2024      N2042   1.321       .  A
N2024      N2029   1.325       .  A
C2025      N2029   1.350       .  A
C2025      C2053   1.457       .  S
N2026      C2041   1.338       .  A
N2026     Co2048   2.072       .  S
C2027      N2055   1.337       .  A
C2027      C2030   1.453       .  S
C2027      H2061   1.082       .  S
C2030      N2051   1.350       .  A
N2031      N2037   1.320       .  A
N2032      C2058   1.347       .  A
N2032      N2034   1.321       .  A
N2032     Co2048   2.095       .  S
N2033      C2047   1.338       .  A
N2034      N2062   1.322       .  A
N2034     Co2052   2.081       .  S
H2035      C2058   1.082       .  S
H2036      C2053   1.082       .  S
N2038     Co2052   2.076       .  S
N2039      N2051   1.325       .  A
N2039      N2055   1.321       .  A
N2039     Co2048   2.082       .  S
C2040      N2044   1.347       .  A
C2040      C2054   1.459       .  S
C2041      C2060   1.454       .  S
C2041      H2045   1.082       .  S
N2042      C2053   1.341       .  A
N2042     Co2052   2.089       .  S
C2046      N2062   1.346       .  A
C2046      C2058   1.464       .  S
Co2048    Cl2059   2.475       .  S
N2049      C2060   1.350       .  A
Co2052    Cl2059   2.427       .  S
N2063      C2068   1.351       .  A
N2063      C2067   1.351       .  A
N2063      H2095   1.036       .  S
N2064      C2071   1.351       .  A
N2064      C2072   1.349       .  A
N2065      C2070   1.356       .  A
N2065      C2069   1.356       .  A
N2065      H2096   1.033       .  S
C2067      C2075   1.387       .  A
C2067      C2083   1.411       .  A
C2068      C2076   1.387       .  A
C2069      C2077   1.387       .  A
C2069      C2086   1.423       .  A
C2070      C2078   1.389       .  A
C2071      C2083   1.410       .  A
C2071      C2079   1.384       .  A
C2072      C2086   1.414       .  A
C2072      C2080   1.388       .  A
C2073      C2081   1.383       .  A
C2073      C2084   1.413       .  A
C2074      C2082   1.389       .  A
C2074      C2085   1.420       .  A
C2075      H2087   1.082       .  S
C2075      C2076   1.371       .  A
C2076      H2088   1.082       .  S
C2077      H2089   1.082       .  S
C2077      C2078   1.377       .  A
C2078      H2090   1.082       .  S
C2079      H2091   1.082       .  S
C2079      C2080   1.374       .  A
C2080      H2092   1.082       .  S
C2081      H2093   1.082       .  S
C2081      C2082   1.376       .  A
C2082      H2094   1.082       .  S
C2083      C2437   1.485       .  S
C2084      C2425   1.492       .  S
C2085      C2473   1.492       .  S
C2086      C2512   1.487       .  S
N2097      C2102   1.350       .  A
N2097      C2101   1.348       .  A
N2097      H2129   1.037       .  S
N2098      C2105   1.349   1_556  A
N2098      C2106   1.348       .  A
N2099      C2104   1.354       .  A
N2099      C2103   1.356       .  A
N2099      H2130   1.036       .  S
N2100      C2107   1.350   1_556  A
N2100      C2108   1.349       .  A
C2101      C2109   1.386       .  A
C2101      C2117   1.408       .  A
C2102      C2110   1.388       .  A
C2103      C2111   1.387       .  A
C2103      C2120   1.420       .  A
C2104      C2112   1.387       .  A
C2105      C2117   1.408       .  A
C2105      C2113   1.385       .  A
C2106      C2120   1.411       .  A
C2106      C2114   1.388       .  A
C2107      C2115   1.384       .  A
C2107      C2118   1.409       .  A
C2108      C2116   1.388       .  A
C2108      C2119   1.413       .  A
C2109      H2121   1.083       .  S
C2109      C2110   1.373       .  A
C2110      H2122   1.082       .  S
C2111      H2123   1.082       .  S
C2111      C2112   1.375       .  A
C2112      H2124   1.082       .  S
C2113      H2125   1.082       .  S
C2113      C2114   1.373   1_554  A
C2114      H2126   1.082       .  S
C2115      H2127   1.082       .  S
C2115      C2116   1.375   1_554  A
C2116      H2128   1.082       .  S
C2117      C2485   1.477       .  S
C2118      C2497   1.482       .  S
C2119      C2416   1.487       .  S
C2120      C2401   1.488       .  S
N2131      C2136   1.349       .  A
N2131      C2135   1.349       .  A
N2131      H2163   1.038       .  S
N2133      C2138   1.356       .  A
N2133      C2137   1.356       .  A
N2133      H2164   1.036       .  S
N2134      C2141   1.352       .  A
N2134      C2142   1.350       .  A
C2135      C2143   1.387       .  A
C2136      C2152   1.408       .  A
C2136      C2144   1.387       .  A
C2137      C2145   1.385       .  A
C2138      C2153   1.426       .  A
C2138      C2146   1.389       .  A
C2139      C2151   1.406       .  A
C2139      C2147   1.384       .  A
C2140      C2154   1.410       .  A
C2140      C2148   1.388       .  A
C2141      C2149   1.383       .  A
C2141      C2152   1.412       .  A
C2142      C2150   1.389       .  A
C2142      C2153   1.417       .  A
C2143      H2155   1.083       .  S
C2143      C2144   1.374       .  A
C2144      H2156   1.082       .  S
C2145      H2157   1.082       .  S
C2145      C2146   1.375       .  A
C2146      H2158   1.081       .  S
C2147      H2159   1.082       .  S
C2147      C2148   1.375       .  A
C2148      H2160   1.082       .  S
C2149      H2161   1.082       .  S
C2149      C2150   1.376       .  A
C2150      H2162   1.081       .  S
C2151      C2536   1.479       .  S
C2152      C2464   1.486       .  S
C2153      C2377   1.494       .  S
C2154      C2392   1.488       .  S
N2165      C2170   1.352       .  A
N2165      C2169   1.352       .  A
N2165      H2197   1.036       .  S
N2167      C2172   1.354       .  A
N2167      C2171   1.354       .  A
N2167      H2198   1.037       .  S
N2168      C2175   1.352   1_554  A
N2168      C2176   1.350       .  A
C2169      C2177   1.387       .  A
C2170      C2186   1.414       .  A
C2170      C2178   1.387       .  A
C2171      C2179   1.387       .  A
C2172      C2187   1.418       .  A
C2172      C2180   1.387       .  A
C2173      C2185   1.410       .  A
C2173      C2181   1.385       .  A
C2174      C2188   1.413       .  A
C2174      C2182   1.387       .  A
C2175      C2183   1.385       .  A
C2175      C2186   1.412       .  A
C2176      C2184   1.387       .  A
C2176      C2187   1.414       .  A
C2177      H2189   1.082   1_565  S
C2177      C2178   1.372       .  A
C2178      H2190   1.082       .  S
C2179      H2191   1.082       .  S
C2179      C2180   1.375       .  A
C2180      H2192   1.082       .  S
C2181      H2193   1.082       .  S
C2181      C2182   1.375   1_556  A
C2182      H2194   1.082       .  S
C2183      H2195   1.082       .  S
C2183      C2184   1.375   1_556  A
C2184      H2196   1.082       .  S
C2185      C2353   1.485       .  S
C2186      C2365   1.488       .  S
C2187      C2521   1.489       .  S
C2188      C2452   1.492       .  S
C2199      N2200   1.358       .  A
C2199      N2204   1.363       .  A
C2199      C2368   1.489       .  S
N2200      C2201   1.355       .  A
C2201      N2202   1.357       .  A
C2201      C2235   1.467       .  S
N2202      C2203   1.359       .  A
C2203      N2204   1.362       .  A
C2203      C2330   1.471       .  S
C2205      N2206   1.362       .  A
C2205      N2210   1.363       .  A
C2205      C2413   1.485       .  S
N2206      C2207   1.356       .  A
C2207      N2208   1.351       .  A
C2207      C2308   1.457       .  S
N2208      C2209   1.352       .  A
C2209      N2210   1.358       .  A
C2209      C2255   1.458       .  S
C2211      N2212   1.363       .  A
C2211      N2216   1.357       .  A
C2211      C2356   1.486       .  S
N2212      C2213   1.361       .  A
C2213      N2214   1.358       .  A
C2213      C2271   1.470       .  S
N2214      C2215   1.356       .  A
C2215      N2216   1.353       .  A
C2215      C2315   1.462       .  S
C2217      N2218   1.361       .  A
C2217      N2222   1.360       .  A
C2217      C2404   1.496       .  S
N2218      C2219   1.356       .  A
C2219      N2220   1.357       .  A
C2219      C2340   1.463       .  S
N2220      C2221   1.357       .  A
C2221      N2222   1.357       .  A
C2221      C2285   1.465       .  S
C2223      N2224   1.364       .  A
C2223      N2228   1.363       .  A
C2223      C2380   1.497       .  S
N2224      C2225   1.358       .  A
C2225      N2226   1.355       .  A
C2225      C2336   1.465       .  S
N2226      C2227   1.355       .  A
C2227      N2228   1.359       .  A
C2227      C2250   1.468       .  S
C2229      N2230   1.360       .  A
C2229      N2234   1.358       .  A
C2229      C2428   1.491       .  S
N2230      C2231   1.362       .  A
C2231      N2232   1.359       .  A
C2231      C2350   1.468       .  S
N2232      C2233   1.357       .  A
C2233      N2234   1.358       .  A
C2233      C2275   1.467       .  S
C2235      N2253   1.350       .  A
C2235      C2272   1.457       .  S
N2236      N2253   1.324       .  A
N2236      N2258   1.322       .  A
N2236     Co2273   2.086       .  S
C2237      N2262   1.337       .  A
C2237      C2275   1.454       .  S
C2237      H2282   1.082       .  S
H2238      C2279   1.082       .  S
C2239      N2263   1.337       .  A
C2239      C2243   1.454       .  S
C2239      H2268   1.082       .  S
Co2240     N2258   2.090       .  S
Co2240     N2248   2.075       .  S
Co2240     N2280   2.073       .  S
Co2240     N2256   2.099       .  S
Co2240    Cl2284   2.428       .  S
N2241      C2279   1.345       .  A
N2241      N2248   1.320       .  A
N2241     Co2242   2.093       .  S
Co2242     N2245   2.082       .  S
Co2242     N2262   2.074       .  S
Co2242     N2249   2.094       .  S
Co2242    Cl2284   2.477       .  S
C2243      N2281   1.350       .  A
C2243      C2296   1.464       .  S
N2244      N2251   1.320       .  A
N2244      N2274   1.323       .  A
N2244     Co2277   2.078       .  S
N2245      N2263   1.321       .  A
N2245      N2281   1.326       .  A
N2246      C2275   1.352       .  A
N2246      N2256   1.327       .  A
H2247      C2272   1.082       .  S
N2248      N2269   1.322       .  A
N2249      N2267   1.320       .  A
N2249      N2254   1.328       .  A
C2250      N2254   1.352       .  A
C2250      C2278   1.455       .  S
N2251      C2266   1.344       .  A
N2251     Co2273   2.092       .  S
C2252      N2280   1.335       .  A
C2252      C2255   1.452       .  S
C2252      H2286   1.082       .  S
C2255      N2276   1.349       .  A
N2256      N2262   1.321       .  A
N2257      C2283   1.343       .  A
N2257      N2259   1.321       .  A
N2257     Co2273   2.085       .  S
N2258      C2272   1.342       .  A
N2259      N2287   1.325       .  A
N2259     Co2277   2.094       .  S
H2260      C2283   1.082       .  S
H2261      C2278   1.082       .  S
N2263     Co2277   2.084       .  S
N2264      N2276   1.327       .  A
N2264      N2280   1.321       .  A
N2264     Co2273   2.084       .  S
C2265      N2269   1.345       .  A
C2265      C2279   1.463       .  S
C2265      C2290   1.463       .  S
C2266      C2285   1.463       .  S
C2266      H2270   1.082       .  S
N2267      C2278   1.339       .  A
N2267     Co2277   2.080       .  S
C2271      N2287   1.350       .  A
C2271      C2283   1.459       .  S
Co2273    Cl2284   2.477       .  S
N2274      C2285   1.346       .  A
Co2277    Cl2284   2.426       .  S
C2288      N2289   1.363       .  A
C2288      N2293   1.360       .  A
C2288      C2389   1.488       .  S
N2289      C2290   1.360       .  A
C2290      N2291   1.356       .  A
N2291      C2292   1.355       .  A
C2292      N2293   1.354       .  A
C2292      C2300   1.462       .  S
C2294      N2295   1.362       .  A
C2294      N2299   1.361       .  A
C2294      C2440   1.485       .  S
N2295      C2296   1.358       .  A
C2296      N2297   1.355       .  A
N2297      C2298   1.354       .  A
C2298      N2299   1.356       .  A
C2298      C2320   1.462       .  S
C2300      N2318   1.351       .  A
C2300      C2337   1.454       .  S
N2301      N2318   1.326   1_455  A
N2301      N2323   1.320   1_455  A
C2302      N2327   1.342       .  A
C2302      C2340   1.461       .  S
C2302      H2347   1.082       .  S
H2303      C2344   1.082       .  S
C2304      N2328   1.336       .  A
C2304      C2308   1.454       .  S
C2304      H2333   1.082       .  S
Co2305     N2345   2.083       .  S
Co2305     N2321   2.080       .  S
Co2305    Cl2349   2.426       .  S
N2306      C2344   1.343   1_455  A
N2306      N2313   1.320       .  A
Co2307     N2327   2.086       .  S
Co2307    Cl2349   2.473       .  S
C2308      N2346   1.349       .  A
N2309      N2316   1.320       .  A
N2309      N2339   1.327       .  A
N2310      N2328   1.321       .  A
N2310      N2346   1.326       .  A
N2311      C2340   1.347       .  A
N2311      N2321   1.323       .  A
H2312      C2337   1.082       .  S
N2313      N2334   1.325   1_455  A
N2314      N2332   1.321       .  A
N2314      N2319   1.324       .  A
C2315      N2319   1.349       .  A
C2315      C2343   1.455       .  S
N2316      C2331   1.339       .  A
C2317      N2345   1.339       .  A
C2317      C2320   1.455       .  S
C2317      H2351   1.082       .  S
C2320      N2341   1.349       .  A
N2321      N2327   1.319       .  A
N2322      C2348   1.345       .  A
N2322      N2324   1.320       .  A
N2323      C2337   1.338       .  A
N2324      N2352   1.322       .  A
N2324     Co2342   2.080       .  S
H2325      C2348   1.082       .  S
H2326      C2343   1.082       .  S
N2329      N2341   1.325       .  A
N2329      N2345   1.321       .  A
N2329     Co2338   2.078       .  S
C2330      N2334   1.350       .  A
C2330      C2344   1.460       .  S
C2331      C2350   1.454       .  S
C2331      H2335   1.082       .  S
N2332      C2343   1.340       .  A
N2332     Co2342   2.083       .  S
C2336      N2352   1.346       .  A
C2336      C2348   1.463       .  S
Co2338    Cl2349   2.472       .  S
N2339      C2350   1.352       .  A
C2353      C2354   1.402       .  A
C2353      C2358   1.410       .  A
C2354      H2363   1.083       .  S
C2354      C2355   1.406       .  A
C2355      C2356   1.417       .  A
C2355      S2359   1.807       .  S
C2356      C2357   1.407       .  A
C2357      H2364   1.084       .  S
C2357      C2358   1.394       .  A
S2359      H2362   1.407       .  S
S2360      H2361   1.406       .  S
C2365      C2366   1.403       .  A
C2365      C2370   1.410       .  A
C2366      H2375   1.083       .  S
C2366      C2367   1.407       .  A
C2367      C2368   1.417       .  A
C2367      S2371   1.807       .  S
C2368      C2369   1.407       .  A
C2369      H2376   1.084       .  S
C2369      C2370   1.396       .  A
C2370      S2372   1.805       .  S
S2371      H2374   1.407       .  S
S2372      H2373   1.406       .  S
C2377      C2378   1.403       .  A
C2377      C2382   1.412       .  A
C2378      H2387   1.084       .  S
C2378      C2379   1.403       .  A
C2379      C2380   1.419       .  A
C2379      S2383   1.802       .  S
C2380      C2381   1.410       .  A
C2381      H2388   1.083       .  S
C2381      C2382   1.400       .  A
C2382      S2384   1.806       .  S
S2383      H2386   1.408       .  S
S2384      H2385   1.405       .  S
C2389      C2390   1.409       .  A
C2389      C2394   1.416       .  A
C2390      H2399   1.083       .  S
C2390      C2391   1.396       .  A
C2391      C2392   1.408       .  A
C2392      C2393   1.404       .  A
C2393      H2400   1.084       .  S
C2393      C2394   1.402       .  A
C2394      S2396   1.803       .  S
S2395      H2398   1.406       .  S
S2396      H2397   1.407       .  S
C2401      C2402   1.401       .  A
C2401      C2406   1.410       .  A
C2402      H2411   1.084       .  S
C2402      C2403   1.400       .  A
C2403      C2404   1.421       .  A
C2403      S2407   1.803       .  S
C2404      C2405   1.411       .  A
C2405      H2412   1.083       .  S
C2405      C2406   1.399       .  A
C2406      S2408   1.805       .  S
S2407      H2410   1.408       .  S
S2408      H2409   1.405       .  S
C2413      C2414   1.407       .  A
C2413      C2418   1.415       .  A
C2414      H2423   1.084       .  S
C2414      C2415   1.395       .  A
C2415      C2416   1.410       .  A
C2415      S2419   1.806   1_655  S
C2416      C2417   1.403       .  A
C2417      H2424   1.083       .  S
C2417      C2418   1.405       .  A
C2418      S2420   1.806       .  S
S2419      H2422   1.406       .  S
S2420      H2421   1.407       .  S
C2425      C2426   1.403       .  A
C2425      C2430   1.412       .  A
C2426      H2435   1.084       .  S
C2426      C2427   1.399       .  A
C2427      C2428   1.419       .  A
C2427      S2431   1.804       .  S
C2428      C2429   1.409       .  A
C2429      H2436   1.084       .  S
C2429      C2430   1.405       .  A
S2431      H2434   1.408       .  S
S2432      H2433   1.403       .  S
C2437      C2438   1.401       .  A
C2437      C2442   1.411       .  A
C2438      H2447   1.084       .  S
C2438      C2439   1.401       .  A
C2439      C2440   1.418       .  A
C2439      S2443   1.802       .  S
C2440      C2441   1.406       .  A
C2441      H2448   1.084       .  S
C2441      C2442   1.396       .  A
C2442      S2444   1.805       .  S
S2443      H2446   1.407       .  S
S2444      H2445   1.405       .  S
C2449      C2450   1.409       .  A
C2449      C2454   1.414       .  A
C2450      H2459   1.084       .  S
C2450      C2451   1.396       .  A
C2451      C2452   1.411       .  A
C2452      C2453   1.406       .  A
C2453      H2460   1.084       .  S
C2453      C2454   1.404       .  A
C2454      S2456   1.802       .  S
S2455      H2458   1.406       .  S
S2456      H2457   1.407       .  S
C2461      C2462   1.406       .  A
C2461      C2466   1.419       .  A
C2462      H2471   1.084       .  S
C2462      C2463   1.397       .  A
C2463      C2464   1.412       .  A
C2463      S2467   1.805       .  S
C2464      C2465   1.401       .  A
C2465      H2472   1.084       .  S
C2465      C2466   1.401       .  A
C2466      S2468   1.802       .  S
S2467      H2470   1.406       .  S
S2468      H2469   1.407       .  S
C2473      C2474   1.401       .  A
C2473      C2478   1.411       .  A
C2474      H2483   1.084       .  S
C2474      C2475   1.401       .  A
C2475      C2476   1.421       .  A
C2475      S2479   1.803       .  S
C2476      C2477   1.410       .  A
C2477      H2484   1.083       .  S
C2477      C2478   1.401       .  A
S2479      H2482   1.408       .  S
S2480      H2481   1.405       .  S
C2485      C2486   1.400       .  A
C2485      C2490   1.411       .  A
C2486      H2495   1.084       .  S
C2486      C2487   1.398       .  A
C2487      C2488   1.417       .  A
C2487      S2491   1.803       .  S
C2488      C2489   1.404       .  A
C2489      H2496   1.084       .  S
C2489      C2490   1.393       .  A
C2490      S2492   1.806       .  S
S2491      H2494   1.407       .  S
S2492      H2493   1.405       .  S
C2497      C2498   1.401       .  A
C2497      C2502   1.411       .  A
C2498      C2499   1.394       .  A
C2499      C2500   1.417       .  A
C2500      C2501   1.408       .  A
C2501      H2508   1.084       .  S
C2501      C2502   1.400       .  A
C2502      S2504   1.806       .  S
S2504      H2505   1.403       .  S
C2509      C2510   1.411       .  A
C2509      C2514   1.419       .  A
C2510      H2519   1.083       .  S
C2510      C2511   1.398       .  A
C2511      C2512   1.409       .  A
C2511      S2515   1.806       .  S
C2512      C2513   1.402       .  A
C2513      H2520   1.083       .  S
C2513      C2514   1.405       .  A
C2514      S2516   1.809       .  S
S2515      H2518   1.404       .  S
S2516      H2517   1.407       .  S
C2521      C2522   1.404       .  A
C2521      C2526   1.411       .  A
C2522      H2531   1.084       .  S
C2522      C2523   1.402       .  A
C2523      C2524   1.415       .  A
C2523      S2527   1.802       .  S
C2524      C2525   1.409       .  A
C2525      H2532   1.083       .  S
C2525      C2526   1.397       .  A
C2526      S2528   1.806       .  S
S2527      H2530   1.407       .  S
S2528      H2529   1.406       .  S
C2533      C2534   1.406       .  A
C2533      C2538   1.418       .  A
C2534      H2543   1.084       .  S
C2534      C2535   1.394       .  A
C2535      C2536   1.409       .  A
C2536      C2537   1.401       .  A
C2537      H2544   1.084       .  S
C2537      C2538   1.401       .  A
C2538      S2540   1.803       .  S
S2539      H2542   1.405       .  S
S2540      H2541   1.407       .  S
