geometry optimzed in LAMMPS
_audit_creation_date              2020-12-01 
_audit_creation_method            'lammps2cif' 
_symmetry_space_group_name_H-M    'P1' 
_symmetry_Int_Tables_number       1 
_symmetry_cell_setting            triclinic 
loop_ 
_symmetry_equiv_pos_as_xyz 
  x,y,z 
_cell_length_a                    79.91552207 
_cell_length_b                    79.80315929626808 
_cell_length_c                    79.91450968081271 
_cell_angle_alpha                 90.05391438790103 
_cell_angle_beta                  89.9225586647795 
_cell_angle_gamma                 90.0422298806869 
loop_ 
_atom_site_label 
_atom_site_type_symbol 
_atom_site_fract_x 
_atom_site_fract_y 
_atom_site_fract_z 
_atom_site_charge 
O1          O  0.75702101  0.48125945  0.78357271    -0.73200
O2          O  0.78195277  0.51635421  0.75756380    -0.74200
O3          O  0.75757389  0.51686958  0.78346058    -0.62800
O4          O  0.78135855  0.48083399  0.75785258    -0.71200
O5          O  0.76165381  0.48141073  0.73835932    -0.70800
O6          O  0.73707196  0.51650324  0.76479824    -0.62000
O7          O  0.76144023  0.51705753  0.73891518    -0.74500
O8          O  0.73734314  0.48089436  0.76402648    -0.73300
Cu9        Cu  0.77016990  0.49883923  0.77128029     1.04600
Cu10       Cu  0.74866710  0.49899362  0.75086976     1.04300
C11         C  0.74338516  0.47529195  0.77771293     0.93000
C12         C  0.77560038  0.52232390  0.74416084     0.92100
C13         C  0.74349662  0.52234702  0.77824152     0.84300
C14         C  0.77532396  0.47540090  0.74407732     0.90500
O15         O  0.47594562  0.78944009  0.76000526    -0.73200
O16         O  0.51097495  0.76423500  0.78536977    -0.74200
O17         O  0.51140548  0.78914102  0.76026968    -0.62800
O18         O  0.47556019  0.76448142  0.78505078    -0.71200
O19         O  0.47580702  0.74453672  0.76570766    -0.70800
O20         O  0.51140059  0.76953543  0.74059401    -0.62000
O21         O  0.51127639  0.74451901  0.76580852    -0.74500
O22         O  0.47563795  0.76953504  0.74062169    -0.73300
Cu23       Cu  0.49347284  0.77750202  0.77333147     1.04600
Cu24       Cu  0.49353487  0.75634773  0.75247093     1.04300
C25         C  0.47006411  0.78339610  0.74642443     0.93000
C26         C  0.51673250  0.75044142  0.77963921     0.92100
C27         C  0.51719407  0.78321995  0.74658051     0.84300
C28         C  0.46999264  0.75060941  0.77932132     0.90500
O29         O  0.74019787  0.77147401  0.47557517    -0.73200
O30         O  0.76518101  0.74532088  0.51036199    -0.74200
O31         O  0.73975857  0.77000719  0.51108899    -0.62800
O32         O  0.76556981  0.74659411  0.47484765    -0.71200
O33         O  0.78498343  0.76643143  0.47570439    -0.70800
O34         O  0.75915729  0.78986277  0.51190654    -0.62000
O35         O  0.78450057  0.76526406  0.51113584    -0.74500
O36         O  0.75969198  0.79124094  0.47644213    -0.73300
Cu37       Cu  0.75199178  0.75764879  0.49291496     1.04600
Cu38       Cu  0.77274122  0.77888283  0.49382043     1.04300
C39         C  0.74602923  0.78549661  0.47047176     0.93000
C40         C  0.77877038  0.75127133  0.51635533     0.92100
C41         C  0.74545076  0.78361080  0.51732992     0.84300
C42         C  0.77936686  0.75275182  0.46955215     0.90500
N43         N  0.36377308  0.86565848  0.31661161    -0.27600
N44         N  0.36080540  0.85189917  0.32528935    -0.35400
C45         C  0.37127502  0.83979693  0.32021515     0.00800
C46         C  0.38143305  0.84625274  0.30775963     0.06800
C47         C  0.37631449  0.86271453  0.30579533    -0.06300
H48         H  0.37164276  0.82734487  0.32553028     0.07500
H49         H  0.38129670  0.87192011  0.29720034     0.08700
Cu50       Cu  0.34314628  0.85008675  0.34397004     0.44200
Cu51       Cu  0.35117200  0.88788234  0.32050759     0.42000
Cu52       Cu  0.31804253  0.88668910  0.35161464     0.43900
N53         N  0.32426486  0.85088871  0.36150223    -0.35000
N54         N  0.31455100  0.86407202  0.36384197    -0.29200
C55         C  0.30327495  0.86048446  0.37580540    -0.05300
C56         C  0.30618983  0.84432203  0.38136790     0.06900
C57         C  0.31961654  0.83863050  0.37203794     0.00700
H58         H  0.29394726  0.86916371  0.38040711     0.08400
H59         H  0.32547437  0.82643101  0.37269375     0.07400
N60         N  0.32638892  0.90843455  0.34015403    -0.36400
N61         N  0.33842929  0.90878924  0.32882492    -0.28600
C62         C  0.34167663  0.92477156  0.32473297    -0.03800
C63         C  0.33119742  0.93511308  0.33395775     0.04800
C64         C  0.32165643  0.92422979  0.34359398     0.02900
H65         H  0.35138624  0.92847797  0.31606478     0.08000
H66         H  0.31220241  0.92745360  0.35273058     0.06800
N67         N  0.36434240  0.13208141  0.31617744    -0.27600
N68         N  0.35896067  0.14659075  0.32203887    -0.35400
C69         C  0.36845004  0.15895615  0.31566328     0.00800
C70         C  0.38049227  0.15196012  0.30522744     0.06800
C71         C  0.37740917  0.13483287  0.30590234    -0.06300
H72         H  0.36672233  0.17205044  0.31864827     0.07500
H73         H  0.38421585  0.12498280  0.29958020     0.08700
Cu74       Cu  0.33950714  0.14894275  0.33913220     0.44200
Cu75       Cu  0.35387920  0.10917912  0.32274831     0.42000
Cu76       Cu  0.32034220  0.11017398  0.35316529     0.43900
N77         N  0.32151724  0.14769345  0.35785940    -0.35000
N78         N  0.31484122  0.13350008  0.36315962    -0.29200
C79         C  0.30446697  0.13677229  0.37599042    -0.05300
C80         C  0.30451255  0.15389202  0.37894015     0.06900
C81         C  0.31545299  0.16040921  0.36712485     0.00700
H82         H  0.29743131  0.12730315  0.38264616     0.08400
H83         H  0.31914036  0.17336489  0.36563794     0.07400
N84         N  0.32876933  0.08836439  0.34188593    -0.36400
N85         N  0.34127444  0.08799176  0.33105184    -0.28600
C86         C  0.34433926  0.07199174  0.32678102    -0.03800
C87         C  0.33317219  0.06176809  0.33526584     0.04800
C88         C  0.32343292  0.07261593  0.34467706     0.02900
H89         H  0.35404925  0.06812055  0.31816553     0.08000
H90         H  0.31357590  0.06929983  0.35335668     0.06800
O91         O  0.51218829  0.22831808  0.24741167    -0.73200
O92         O  0.47629661  0.25305956  0.22264871    -0.74200
O93         O  0.47674882  0.22775252  0.24761997    -0.62800
O94         O  0.51177622  0.25361440  0.22242132    -0.71200
O95         O  0.51234967  0.23376834  0.20299998    -0.70800
O96         O  0.47660875  0.20836974  0.22773100    -0.62000
O97         O  0.47682055  0.23368837  0.20275451    -0.74500
O98         O  0.51219038  0.20843326  0.22802693    -0.73300
Cu99       Cu  0.49425384  0.24136463  0.23569828     1.04600
Cu100      Cu  0.49450648  0.22039220  0.21467982     1.04300
C101        C  0.51775530  0.21438990  0.24179820     0.93000
C102        C  0.47089798  0.24732027  0.20873061     0.92100
C103        C  0.47108855  0.21399573  0.24166850     0.84300
C104        C  0.51766369  0.24774945  0.20873916     0.90500
N105        N  0.62327602  0.86586909  0.31703461    -0.27600
N106        N  0.62677631  0.85214067  0.32556658    -0.35400
C107        C  0.61671908  0.83967447  0.32032089     0.00800
C108        C  0.60644645  0.84581341  0.30776334     0.06800
C109        C  0.61100987  0.86248386  0.30603698    -0.06300
H110        H  0.61707956  0.82701858  0.32513617     0.07500
H111        H  0.60568075  0.87159676  0.29756927     0.08700
Cu112      Cu  0.64541833  0.85100675  0.34358747     0.44200
Cu113      Cu  0.63514831  0.88865236  0.32092436     0.42000
Cu114      Cu  0.66919845  0.88924125  0.35071695     0.43900
N115        N  0.66496933  0.85304727  0.36053352    -0.35000
N116        N  0.67355386  0.86695667  0.36320539    -0.29200
C117        C  0.68502795  0.86411882  0.37516361    -0.05300
C118        C  0.68369819  0.84756759  0.38020068     0.06900
C119        C  0.67084005  0.84095410  0.37062503     0.00700
H120        H  0.69373951  0.87342986  0.37973746     0.08400
H121        H  0.66586235  0.82835846  0.37112474     0.07400
N122        N  0.66110575  0.91021116  0.33783670    -0.36400
N123        N  0.64841169  0.91007348  0.32725824    -0.28600
C124        C  0.64553794  0.92579992  0.32198272    -0.03800
C125        C  0.65705342  0.93636221  0.32952757     0.04800
C126        C  0.66675694  0.92599804  0.33945801     0.02900
H127        H  0.63568389  0.92925676  0.31339109     0.08000
H128        H  0.67677075  0.92970667  0.34777218     0.06800
N129        N  0.67202006  0.13230600  0.36371673    -0.27600
N130        N  0.66254864  0.14566672  0.36141707    -0.35400
C131        C  0.66750004  0.15783033  0.37193661     0.00800
C132        C  0.68079503  0.15186905  0.38129125     0.06800
C133        C  0.68334371  0.13563923  0.37569103    -0.06300
H134        H  0.66182988  0.17011368  0.37264569     0.07500
H135        H  0.69246331  0.12673597  0.38024058     0.08700
Cu136      Cu  0.64307042  0.14671887  0.34441768     0.44200
Cu137      Cu  0.66847669  0.10992237  0.35113952     0.42000
Cu138      Cu  0.63341299  0.10881031  0.32201541     0.43900
N139        N  0.62372679  0.14480468  0.32732807    -0.35000
N140        N  0.61991232  0.13084067  0.31930182    -0.29200
C141        C  0.60691729  0.13382094  0.30903308    -0.05300
C142        C  0.60245539  0.15054965  0.31053453     0.06900
C143        C  0.61339950  0.15707492  0.32229777     0.00700
H144        H  0.60157700  0.12463708  0.30062816     0.08400
H145        H  0.61398414  0.16985198  0.32678997     0.07400
N146        N  0.64857811  0.08841242  0.32735754    -0.36400
N147        N  0.66116007  0.08876270  0.33807167    -0.28600
C148        C  0.66743412  0.07322204  0.33965814    -0.03800
C149        C  0.65839921  0.06252258  0.32940330     0.04800
C150        C  0.64660552  0.07266093  0.32174479     0.02900
H151        H  0.67755864  0.06995864  0.34800199     0.08000
H152        H  0.63672976  0.06878191  0.31334378     0.06800
O153        O  0.73891314  0.23046232  0.50963839    -0.73200
O154        O  0.76459492  0.25484524  0.47414731    -0.74200
O155        O  0.73945095  0.22982664  0.47412903    -0.62800
O156        O  0.76404727  0.25541273  0.50951488    -0.71200
O157        O  0.78375898  0.23586941  0.50963057    -0.70800
O158        O  0.75858579  0.20971558  0.47511351    -0.62000
O159        O  0.78383977  0.23484235  0.47414802    -0.74500
O160        O  0.75859676  0.21091831  0.51049442    -0.73300
Cu161      Cu  0.75107076  0.24331205  0.49181607     1.04600
Cu162      Cu  0.77188669  0.22215002  0.49234805     1.04300
C163        C  0.74473993  0.21690558  0.51581346     0.93000
C164        C  0.77827729  0.24876054  0.46852805     0.92100
C165        C  0.74501593  0.21566583  0.46914708     0.84300
C166        C  0.77783804  0.24967128  0.51517708     0.90500
N167        N  0.62595016  0.86411200  0.67545723    -0.27600
N168        N  0.63029540  0.84984752  0.66825439    -0.35400
C169        C  0.62124834  0.83729729  0.67490958     0.00800
C170        C  0.61056214  0.84396456  0.68684436     0.06800
C171        C  0.61395054  0.86101572  0.68684950    -0.06300
H172        H  0.62200652  0.82438015  0.67087690     0.07500
H173        H  0.60801298  0.87056639  0.69440532     0.08700
Cu174      Cu  0.64763358  0.84811370  0.64909969     0.44200
Cu175      Cu  0.63599365  0.88729120  0.66905490     0.42000
Cu176      Cu  0.66938740  0.88641118  0.63852535     0.43900
N177        N  0.66558193  0.84970767  0.63050499    -0.35000
N178        N  0.67376658  0.86361143  0.62682929    -0.29200
C179        C  0.68440607  0.86049253  0.61416175    -0.05300
C180        C  0.68285737  0.84377481  0.60959474     0.06900
C181        C  0.67076513  0.83737297  0.62028753     0.00700
H182        H  0.69259868  0.86979479  0.60871027     0.08400
H183        H  0.66585665  0.82474625  0.62055063     0.07400
N184        N  0.66050514  0.90826303  0.64944658    -0.36400
N185        N  0.64807114  0.90868659  0.66034138    -0.28600
C186        C  0.64467273  0.92477051  0.66412388    -0.03800
C187        C  0.65551152  0.93506418  0.65517161     0.04800
C188        C  0.66537698  0.92402270  0.64603627     0.02900
H189        H  0.63485573  0.92858863  0.67262129     0.08000
H190        H  0.67515872  0.92710526  0.63720680     0.06800
N191        N  0.62413883  0.13213536  0.67063618    -0.27600
N192        N  0.62574827  0.14561654  0.66116638    -0.35400
C193        C  0.61514700  0.15747745  0.66657100     0.00800
C194        C  0.60644882  0.15126716  0.68018498     0.06800
C195        C  0.61253293  0.13517476  0.68249638    -0.06300
H196        H  0.61388832  0.16973722  0.66094865     0.07500
H197        H  0.60841771  0.12613837  0.69171020     0.08700
Cu198      Cu  0.64202222  0.14763565  0.64117363     0.44200
Cu199      Cu  0.63675834  0.10984549  0.66588188     0.42000
Cu200      Cu  0.66429131  0.11010403  0.62970659     0.43900
N201        N  0.65976386  0.14689648  0.62237126    -0.35000
N202        N  0.66785500  0.13311220  0.61809133    -0.29200
C203        C  0.67873739  0.13677689  0.60579443    -0.05300
C204        C  0.67754306  0.15373348  0.60220906     0.06900
C205        C  0.66534094  0.15972998  0.61299850     0.00700
H206        H  0.68720708  0.12779090  0.60022203     0.08400
H207        H  0.66084542  0.17246834  0.61405119     0.07400
N208        N  0.65849614  0.08864254  0.64324906    -0.36400
N209        N  0.64866428  0.08861057  0.65656548    -0.28600
C210        C  0.64690043  0.07276386  0.66201418    -0.03800
C211        C  0.65598832  0.06221737  0.65160466     0.04800
C212        C  0.66319579  0.07280148  0.63985321     0.02900
H213        H  0.63902088  0.06916166  0.67242221     0.08000
H214        H  0.67109919  0.06928064  0.62943367     0.06800
N215        N  0.31666936  0.86786056  0.62409365    -0.27600
N216        N  0.32535064  0.85410944  0.62709804    -0.35400
C217        C  0.32039150  0.84202143  0.61648630     0.00800
C218        C  0.30797009  0.84841461  0.60619005     0.06800
C219        C  0.30597378  0.86489052  0.61143319    -0.06300
H220        H  0.32567264  0.82955414  0.61622483     0.07500
H221        H  0.29737697  0.87409126  0.60649316     0.08700
Cu222      Cu  0.34376320  0.85230361  0.64531283     0.44200
Cu223      Cu  0.32027129  0.89011802  0.63706165     0.42000
Cu224      Cu  0.35259110  0.88932167  0.66929033     0.43900
N225        N  0.36120043  0.85309370  0.66453000    -0.35000
N226        N  0.36412608  0.86660101  0.67363633    -0.29200
C227        C  0.37576651  0.86302607  0.68523249    -0.05300
C228        C  0.38052699  0.84646275  0.68323387     0.06900
C229        C  0.37103581  0.84058203  0.66996530     0.00700
H230        H  0.38064567  0.87194637  0.69418607     0.08400
H231        H  0.37112877  0.82807964  0.66472200     0.07400
N232        N  0.34006555  0.91067593  0.66188626    -0.36400
N233        N  0.32816084  0.91098264  0.65042876    -0.28600
C234        C  0.32303150  0.92687915  0.64837624    -0.03800
C235        C  0.33221103  0.93711471  0.65900414     0.04800
C236        C  0.34288900  0.92633702  0.66735842     0.02900
H237        H  0.31368052  0.93068372  0.63938790     0.08000
H238        H  0.35217283  0.92955132  0.67666181     0.06800
N239        N  0.36639125  0.13299410  0.66908670    -0.27600
N240        N  0.36177889  0.14681073  0.66128147    -0.35400
C241        C  0.37232131  0.15925353  0.66535568     0.00800
C242        C  0.38422209  0.15296309  0.67624135     0.06800
C243        C  0.38007936  0.13622779  0.67828623    -0.06300
H244        H  0.37133104  0.17192655  0.66067997     0.07500
H245        H  0.38625138  0.12713985  0.68618173     0.08700
Cu246      Cu  0.34151693  0.14821417  0.64535433     0.44200
Cu247      Cu  0.35365517  0.11059533  0.66699833     0.42000
Cu248      Cu  0.31918554  0.11019099  0.63685512     0.43900
N249        N  0.32185838  0.14677641  0.62868188    -0.35000
N250        N  0.31347526  0.13285958  0.62552214    -0.29200
C251        C  0.30189746  0.13603538  0.61371985    -0.05300
C252        C  0.30322507  0.15273822  0.60915034     0.06900
C253        C  0.31600141  0.15912857  0.61892503     0.00700
H254        H  0.29358626  0.12673558  0.60842474     0.08400
H255        H  0.32086575  0.17178335  0.61882901     0.07400
N256        N  0.32752950  0.08938620  0.64998081    -0.36400
N257        N  0.33968754  0.08963432  0.66118489    -0.28600
C258        C  0.34219355  0.07401951  0.66693121    -0.03800
C259        C  0.33120505  0.06335831  0.65882723     0.04800
C260        C  0.32208379  0.07356432  0.64820312     0.02900
H261        H  0.35187554  0.07061177  0.67573624     0.08000
H262        H  0.31237867  0.06978369  0.63955902     0.06800
O263        O  0.51241444  0.25391646  0.76221775    -0.73200
O264        O  0.47681913  0.23013091  0.73668116    -0.74200
O265        O  0.47716546  0.25495297  0.76203973    -0.62800
O266        O  0.51218861  0.22901019  0.73715466    -0.71200
O267        O  0.51117298  0.20914698  0.75653138    -0.70800
O268        O  0.47651130  0.23512291  0.78145441    -0.62000
O269        O  0.47592241  0.21028380  0.75607464    -0.74500
O270        O  0.51183839  0.23406830  0.78162904    -0.73300
Cu271      Cu  0.49465315  0.24269481  0.74884204     1.04600
Cu272      Cu  0.49380874  0.22147486  0.76960917     1.04300
C273        C  0.51781745  0.24777753  0.77592212     0.93000
C274        C  0.47083767  0.21635950  0.74219294     0.92100
C275        C  0.47138843  0.24916631  0.77579371     0.84300
C276        C  0.51724252  0.21496840  0.74294414     0.90500
O277        O  0.24702945  0.22782176  0.47619954    -0.73200
O278        O  0.22222295  0.25279016  0.51170137    -0.74200
O279        O  0.24715779  0.22768924  0.51177051    -0.62800
O280        O  0.22197797  0.25266372  0.47642108    -0.71200
O281        O  0.20202087  0.23333705  0.47697390    -0.70800
O282        O  0.22788890  0.20767779  0.51138069    -0.62000
O283        O  0.20286979  0.23286489  0.51244948    -0.74500
O284        O  0.22727055  0.20831099  0.47578494    -0.73300
Cu285      Cu  0.23528277  0.24089236  0.49402391     1.04600
Cu286      Cu  0.21432742  0.21983281  0.49414960     1.04300
C287        C  0.24103337  0.21427644  0.47015257     0.93000
C288        C  0.20867010  0.24684021  0.51773555     0.92100
C289        C  0.24148408  0.21373767  0.51722022     0.84300
C290        C  0.20795418  0.24703030  0.47119608     0.90500
N291        N  0.62078144  0.32220612  0.86014715    -0.27600
N292        N  0.62545937  0.32938437  0.84602629    -0.35400
C293        C  0.61615330  0.32337985  0.83344264     0.00800
C294        C  0.60501290  0.31178816  0.83992858     0.06800
C295        C  0.60828515  0.31141562  0.85695405    -0.06300
H296        H  0.61749610  0.32726961  0.82055712     0.07500
H297        H  0.60232280  0.30368589  0.86633631     0.08700
Cu298      Cu  0.64440322  0.34669011  0.84419969     0.44200
Cu299      Cu  0.63204265  0.32708397  0.88282235     0.42000
Cu300      Cu  0.66829552  0.35472076  0.88140295     0.43900
N301        N  0.66391165  0.36344030  0.84512640    -0.35000
N302        N  0.67310642  0.36607783  0.85859469    -0.29200
C303        C  0.68459213  0.37789446  0.85512575    -0.05300
C304        C  0.68234340  0.38302477  0.83872918     0.06900
C305        C  0.66912031  0.37357725  0.83278656     0.00700
H306        H  0.69345937  0.38284065  0.86408155     0.08400
H307        H  0.66359044  0.37406473  0.82044847     0.07400
N308        N  0.65879522  0.34418194  0.90312250    -0.36400
N309        N  0.64559941  0.33420829  0.90358096    -0.28600
C310        C  0.64216643  0.33030382  0.91955347    -0.03800
C311        C  0.65370941  0.33826909  0.92973826     0.04800
C312        C  0.66407861  0.34694676  0.91883934     0.02900
H313        H  0.63165373  0.32268256  0.92340644     0.08000
H314        H  0.67454781  0.35492027  0.92202033     0.06800
N315        N  0.62210899  0.32410529  0.12639435    -0.27600
N316        N  0.62744846  0.33038707  0.14070205    -0.35400
C317        C  0.61860093  0.32361151  0.15329619     0.00800
C318        C  0.60703304  0.31247962  0.14661216     0.06800
C319        C  0.60969556  0.31316854  0.12945555    -0.06300
H320        H  0.62043822  0.32678717  0.16631385     0.07500
H321        H  0.60310452  0.30637082  0.11979612     0.08700
Cu322      Cu  0.64613243  0.34826343  0.14232176     0.44200
Cu323      Cu  0.63201338  0.33070543  0.10345897     0.42000
Cu324      Cu  0.66667668  0.36013691  0.10362862     0.43900
N325        N  0.66427049  0.36669772  0.14065481    -0.35000
N326        N  0.67179979  0.37104931  0.12658835    -0.29200
C327        C  0.68255154  0.38361371  0.12977767    -0.05300
C328        C  0.68179509  0.38736465  0.14671665     0.06900
C329        C  0.67002956  0.37633780  0.15317040     0.00700
H330        H  0.69033835  0.38950249  0.12039403     0.08400
H331        H  0.66570688  0.37547231  0.16596494     0.07400
N332        N  0.65749670  0.34871970  0.08223691    -0.36400
N333        N  0.64461356  0.33833070  0.08222548    -0.28600
C334        C  0.64117188  0.33383122  0.06641520    -0.03800
C335        C  0.65245592  0.34173004  0.05589918     0.04800
C336        C  0.66267313  0.35103157  0.06639130     0.02900
H337        H  0.63115819  0.32541273  0.06290814     0.08000
H338        H  0.67279839  0.35928218  0.06278730     0.06800
O339        O  0.73991339  0.48169481  0.22394389    -0.73200
O340        O  0.76453658  0.51712057  0.24949683    -0.74200
O341        O  0.73963882  0.51735474  0.22433076    -0.62800
O342        O  0.76492442  0.48161451  0.24909223    -0.71200
O343        O  0.78482216  0.48240730  0.22974543    -0.70800
O344        O  0.75906409  0.51726350  0.20448156    -0.62000
O345        O  0.78404214  0.51788236  0.22975660    -0.74500
O346        O  0.75978931  0.48171096  0.20456425    -0.73300
Cu347      Cu  0.75155487  0.49942398  0.23738168     1.04600
Cu348      Cu  0.77260366  0.49982556  0.21644832     1.04300
C349        C  0.74595942  0.47600724  0.21026017     0.93000
C350        C  0.77818545  0.52312747  0.24370600     0.92100
C351        C  0.74538317  0.52298003  0.21048792     0.84300
C352        C  0.77897615  0.47647295  0.24340138     0.90500
N353        N  0.62742924  0.68187191  0.86018402    -0.27600
N354        N  0.63155916  0.67445057  0.84598270    -0.35400
C355        C  0.62174079  0.68033190  0.83367210     0.00800
C356        C  0.61079440  0.69201179  0.84042648     0.06800
C357        C  0.61484582  0.69265545  0.85729195    -0.06300
H358        H  0.62219774  0.67592760  0.82088088     0.07500
H359        H  0.60894187  0.70016884  0.86689024     0.08700
Cu360      Cu  0.64951851  0.65582413  0.84412451     0.44200
Cu361      Cu  0.63820292  0.67620433  0.88311336     0.42000
Cu362      Cu  0.66883897  0.64301483  0.88317564     0.43900
N363        N  0.66713267  0.63686705  0.84590258    -0.35000
N364        N  0.67419426  0.63222122  0.86009586    -0.29200
C365        C  0.68458885  0.61933393  0.85704310    -0.05300
C366        C  0.68406380  0.61557923  0.84007351     0.06900
C367        C  0.67282710  0.62705720  0.83345495     0.00700
H368        H  0.69178250  0.61307305  0.86662173     0.08400
H369        H  0.66875885  0.62809990  0.82060344     0.07400
N370        N  0.66072603  0.65513006  0.90475713    -0.36400
N371        N  0.64952431  0.66729279  0.90471499    -0.28600
C372        C  0.64661074  0.67217011  0.92057138    -0.03800
C373        C  0.65646577  0.66263259  0.93122822     0.04800
C374        C  0.66525557  0.65195668  0.92065260     0.02900
H375        H  0.63785365  0.68191291  0.92400429     0.08000
H376        H  0.67406483  0.64232288  0.92418727     0.06800
N377        N  0.62246826  0.67670154  0.12826328    -0.27600
N378        N  0.62675877  0.66931212  0.14240300    -0.35400
C379        C  0.61682117  0.67491985  0.15478017     0.00800
C380        C  0.60562835  0.68642818  0.14815935     0.06800
C381        C  0.60963484  0.68718318  0.13126129    -0.06300
H382        H  0.61765638  0.67071798  0.16760646     0.07500
H383        H  0.60377855  0.69483163  0.12177354     0.08700
Cu384      Cu  0.64572767  0.65171057  0.14423734     0.44200
Cu385      Cu  0.63423753  0.67212821  0.10551528     0.42000
Cu386      Cu  0.66796462  0.64172008  0.10594946     0.43900
N387        N  0.66482489  0.63419892  0.14280688    -0.35000
N388        N  0.67324931  0.63081111  0.12896249    -0.29200
C389        C  0.68462969  0.61883670  0.13226503    -0.05300
C390        C  0.68315021  0.61433296  0.14894444     0.06900
C391        C  0.67045945  0.62434573  0.15521328     0.00700
H392        H  0.69294703  0.61340330  0.12305205     0.08400
H393        H  0.66560483  0.62444272  0.16785613     0.07400
N394        N  0.65944804  0.65350554  0.08437782    -0.36400
N395        N  0.64738912  0.66484087  0.08427062    -0.28600
C396        C  0.64478152  0.66989580  0.06842261    -0.03800
C397        C  0.65559266  0.66120036  0.05798893     0.04800
C398        C  0.66468175  0.65090504  0.06857540     0.02900
H399        H  0.63531793  0.67883464  0.06472882     0.08000
H400        H  0.67436984  0.64210815  0.06506961     0.06800
N401        N  0.35985435  0.68126363  0.85955929    -0.27600
N402        N  0.35624239  0.67301879  0.84569631    -0.35400
C403        C  0.36625216  0.67847395  0.83332705     0.00800
C404        C  0.37677251  0.69072034  0.83973766     0.06800
C405        C  0.37228568  0.69215157  0.85643815    -0.06300
H406        H  0.36613577  0.67348974  0.82074155     0.07500
H407        H  0.37771194  0.70032782  0.86576259     0.08700
Cu408      Cu  0.33842728  0.65422269  0.84444676     0.44200
Cu409      Cu  0.34846514  0.67666139  0.88226704     0.42000
Cu410      Cu  0.31679629  0.64390934  0.88281048     0.43900
N411        N  0.31980962  0.63624033  0.84602702    -0.35000
N412        N  0.31147999  0.63279971  0.85990856    -0.29200
C413        C  0.30005545  0.62084656  0.85661683    -0.05300
C414        C  0.30142121  0.61643155  0.83990258     0.06900
C415        C  0.31410292  0.62642374  0.83360568     0.00700
H416        H  0.29172542  0.61542905  0.86582373     0.08400
H417        H  0.31880545  0.62662312  0.82090433     0.07400
N418        N  0.32536711  0.65631253  0.90399915    -0.36400
N419        N  0.33670774  0.66836800  0.90370744    -0.28600
C420        C  0.33985085  0.67340113  0.91943448    -0.03800
C421        C  0.33008270  0.66400875  0.93024653     0.04800
C422        C  0.32104294  0.65330262  0.91997341     0.02900
H423        H  0.34903776  0.68280308  0.92271302     0.08000
H424        H  0.31209043  0.64386985  0.92376163     0.06800
N425        N  0.31726559  0.62814881  0.12545814    -0.27600
N426        N  0.32374218  0.63303616  0.13984159    -0.35400
C427        C  0.31774514  0.62328109  0.15214792     0.00800
C428        C  0.30691066  0.61156102  0.14523808     0.06800
C429        C  0.30695963  0.61509747  0.12821492    -0.06300
H430        H  0.32122612  0.62465183  0.16513961     0.07500
H431        H  0.30006600  0.60872385  0.11847263     0.08700
Cu432      Cu  0.34071963  0.65251919  0.14209062     0.44200
Cu433      Cu  0.32295897  0.63963032  0.10292074     0.42000
Cu434      Cu  0.35117913  0.67562374  0.10466431     0.43900
N435        N  0.35791382  0.67193723  0.14146110    -0.35000
N436        N  0.36147560  0.68066544  0.12787441    -0.29200
C437        C  0.37333668  0.69203595  0.13157240    -0.05300
C438        C  0.37756891  0.69028641  0.14829292     0.06900
C439        C  0.36750171  0.67741135  0.15413797     0.00700
H440        H  0.37888175  0.70050300  0.12257195     0.08400
H441        H  0.36720103  0.67227237  0.16665459     0.07400
N442        N  0.34082481  0.66631938  0.08282813    -0.36400
N443        N  0.33055510  0.65333406  0.08225523    -0.28600
C444        C  0.32624823  0.65046593  0.06627407    -0.03800
C445        C  0.33424840  0.66213837  0.05626276     0.04800
C446        C  0.34343251  0.67196823  0.06719146     0.02900
H447        H  0.31811384  0.64039896  0.06225518     0.08000
H448        H  0.35134828  0.68251384  0.06407243     0.06800
O449        O  0.47621194  0.77024568  0.25017448    -0.73200
O450        O  0.50984099  0.74404142  0.22393648    -0.74200
O451        O  0.51162898  0.76908054  0.24914608    -0.62800
O452        O  0.47425720  0.74542026  0.22496704    -0.71200
O453        O  0.47528754  0.76464510  0.20495676    -0.70800
O454        O  0.51095352  0.78942411  0.23025530    -0.62000
O455        O  0.51080311  0.76428806  0.20497253    -0.74500
O456        O  0.47564826  0.78958815  0.23027075    -0.73300
Cu457      Cu  0.49298307  0.75649054  0.23772525     1.04600
Cu458      Cu  0.49318363  0.77765552  0.21691888     1.04300
C459        C  0.47054830  0.78401945  0.24436844     0.93000
C460        C  0.51582192  0.75009015  0.21039179     0.92100
C461        C  0.51696341  0.78316454  0.24367243     0.84300
C462        C  0.46892602  0.75129118  0.21107799     0.90500
N463        N  0.31957157  0.37298442  0.85884811    -0.27600
N464        N  0.32630656  0.36788686  0.84463297    -0.35400
C465        C  0.32004457  0.37700287  0.83198119     0.00800
C466        C  0.30876292  0.38849976  0.83849625     0.06800
C467        C  0.30884686  0.38553481  0.85562387    -0.06300
H468        H  0.32364566  0.37539127  0.81903658     0.07500
H469        H  0.30161231  0.39189932  0.86513386     0.08700
Cu470      Cu  0.34413954  0.34923409  0.84309821     0.44200
Cu471      Cu  0.32533974  0.36268687  0.88198783     0.42000
Cu472      Cu  0.35870696  0.33211869  0.88237755     0.43900
N473        N  0.36322289  0.33192356  0.84504727    -0.35000
N474        N  0.36870926  0.32585006  0.85938440    -0.29200
C475        C  0.38140899  0.31526001  0.85635312    -0.05300
C476        C  0.38407366  0.31459738  0.83921453     0.06900
C477        C  0.37226264  0.32537290  0.83248436     0.00700
H478        H  0.38808059  0.30854207  0.86599784     0.08400
H479        H  0.37040938  0.32848487  0.81945770     0.07400
N480        N  0.34608289  0.33979111  0.90359857    -0.36400
N481        N  0.33373505  0.35078491  0.90349612    -0.28600
C482        C  0.32818220  0.35291187  0.91924265    -0.03800
C483        C  0.33753180  0.34280640  0.92981980     0.04800
C484        C  0.34877043  0.33467396  0.91937692     0.02900
H485        H  0.31823921  0.36144080  0.92269857     0.08000
H486        H  0.35818039  0.32561292  0.92287723     0.06800
N487        N  0.31937344  0.37191846  0.12696412    -0.27600
N488        N  0.32798636  0.36819767  0.14056556    -0.35400
C489        C  0.32281763  0.37797202  0.15326379     0.00800
C490        C  0.31014993  0.38821811  0.14746212     0.06800
C491        C  0.30825964  0.38401917  0.13073224    -0.06300
H492        H  0.32760509  0.37730661  0.16590158     0.07500
H493        H  0.29953757  0.38943021  0.12192206     0.08700
Cu494      Cu  0.34557125  0.34927675  0.14154951     0.44200
Cu495      Cu  0.32344375  0.36031132  0.10398519     0.42000
Cu496      Cu  0.35377252  0.32618748  0.10341891     0.43900
N497        N  0.36211770  0.32946553  0.14000216    -0.35000
N498        N  0.36539718  0.32116080  0.12606607    -0.29200
C499        C  0.37722835  0.30961167  0.12923117    -0.05300
C500        C  0.38147351  0.31061941  0.14601616     0.06900
C501        C  0.37158667  0.32332502  0.15243242     0.00700
H502        H  0.38232844  0.30112110  0.11997804     0.08400
H503        H  0.37158283  0.32812064  0.16509680     0.07400
N504        N  0.34108862  0.33458767  0.08239930    -0.36400
N505        N  0.33027624  0.34711678  0.08256382    -0.28600
C506        C  0.32516476  0.35007908  0.06681749    -0.03800
C507        C  0.33310502  0.33886541  0.05614943     0.04800
C508        C  0.34306117  0.32920353  0.06656519     0.02900
H509        H  0.31649755  0.35989850  0.06344011     0.08000
H510        H  0.35165890  0.31939524  0.06289722     0.06800
N511        N  0.85981299  0.32215336  0.62183899    -0.27600
N512        N  0.84552959  0.32870819  0.62695695    -0.35400
C513        C  0.83298474  0.32241047  0.61772581     0.00800
C514        C  0.83969043  0.31138062  0.60612726     0.06800
C515        C  0.85677067  0.31153918  0.60914290    -0.06300
H516        H  0.82001972  0.32604742  0.61907753     0.07500
H517        H  0.86634882  0.30455153  0.60259761     0.08700
Cu518      Cu  0.84382710  0.34670125  0.64545843     0.44200
Cu519      Cu  0.88270986  0.32828293  0.63215159     0.42000
Cu520      Cu  0.88239095  0.36009306  0.66483660     0.43900
N521        N  0.84518710  0.36566840  0.66300004    -0.35000
N522        N  0.85925690  0.37073345  0.67003038    -0.29200
C523        C  0.85584146  0.38346953  0.68052355    -0.05300
C524        C  0.83874521  0.38656824  0.68010856     0.06900
C525        C  0.83245339  0.37498234  0.66881424     0.00700
H526        H  0.86516971  0.38988121  0.68794069     0.08400
H527        H  0.81960715  0.37349133  0.66485599     0.07400
N528        N  0.90373809  0.34759645  0.65685556    -0.36400
N529        N  0.90380682  0.33622791  0.64481671    -0.28600
C530        C  0.91959339  0.33114395  0.64210491    -0.03800
C531        C  0.93003579  0.33968097  0.65298804     0.04800
C532        C  0.91951579  0.34997007  0.66219888     0.02900
H533        H  0.92315503  0.32200573  0.63275485     0.08000
H534        H  0.92308896  0.35897861  0.67166194     0.06800
N535        N  0.12699682  0.32478100  0.62089666    -0.27600
N536        N  0.14134788  0.33025261  0.62698881    -0.35400
C537        C  0.15399591  0.32333633  0.61832964     0.00800
C538        C  0.14731812  0.31295683  0.60610740     0.06800
C539        C  0.13011830  0.31422967  0.60817594    -0.06300
H540        H  0.16705270  0.32590722  0.62074465     0.07500
H541        H  0.12046148  0.30815464  0.60090861     0.08700
Cu542      Cu  0.14318084  0.34767643  0.64599002     0.44200
Cu543      Cu  0.10377167  0.33203225  0.62984039     0.42000
Cu544      Cu  0.10378398  0.36434092  0.66109597     0.43900
N545        N  0.14127764  0.36738672  0.66260503    -0.35000
N546        N  0.12688808  0.37355954  0.66789308    -0.29200
C547        C  0.12986277  0.38673763  0.67787858    -0.05300
C548        C  0.14701084  0.38905272  0.67895027     0.06900
C549        C  0.15383968  0.37649070  0.66908107     0.00700
H550        H  0.12013712  0.39418945  0.68363478     0.08400
H551        H  0.16692829  0.37412182  0.66661446     0.07400
N552        N  0.08228216  0.35281925  0.65272271    -0.36400
N553        N  0.08225397  0.34089967  0.64126338    -0.28600
C554        C  0.06646411  0.33565334  0.63887797    -0.03800
C555        C  0.05598791  0.34471290  0.64939086     0.04800
C556        C  0.06653269  0.35552690  0.65794470     0.02900
H557        H  0.06297945  0.32593857  0.63011378     0.08000
H558        H  0.06315501  0.36452338  0.66749485     0.06800
O559        O  0.22041076  0.51878141  0.74133225    -0.73200
O560        O  0.24669696  0.48293782  0.76444504    -0.74200
O561        O  0.22150725  0.48353789  0.73966957    -0.62800
O562        O  0.24556890  0.51854234  0.76599164    -0.71200
O563        O  0.22646823  0.51710441  0.78609858    -0.70800
O564        O  0.20199759  0.48213221  0.75939573    -0.62000
O565        O  0.22722921  0.48135531  0.78417058    -0.74500
O566        O  0.20106229  0.51775216  0.76121450    -0.73300
Cu567      Cu  0.23422827  0.50099137  0.75222149     1.04600
Cu568      Cu  0.21350982  0.49952530  0.77344542     1.04300
C569        C  0.20660967  0.52396411  0.74753946     0.93000
C570        C  0.24103917  0.47628763  0.77785269     0.92100
C571        C  0.20790597  0.47732792  0.74531227     0.84300
C572        C  0.23978675  0.52359605  0.78002339     0.90500
N573        N  0.85669019  0.63207177  0.67424916    -0.27600
N574        N  0.84310528  0.63542484  0.66546206    -0.35400
C575        C  0.83076348  0.62497668  0.67017968     0.00800
C576        C  0.83683106  0.61459838  0.68265103     0.06800
C577        C  0.85330667  0.61950864  0.68493330    -0.06300
H578        H  0.81830258  0.62497521  0.66490756     0.07500
H579        H  0.86234276  0.61403474  0.69338054     0.08700
Cu580      Cu  0.84215499  0.65372449  0.64716998     0.44200
Cu581      Cu  0.87951801  0.64389621  0.67041381     0.42000
Cu582      Cu  0.88099366  0.67490563  0.63727054     0.43900
N583        N  0.84451833  0.67177518  0.62876115    -0.35000
N584        N  0.85871403  0.67937484  0.62497627    -0.29200
C585        C  0.85604605  0.69002466  0.61224009    -0.05300
C586        C  0.83929797  0.68916170  0.60783443     0.06900
C587        C  0.83241131  0.67743266  0.61861057     0.00700
H588        H  0.86561113  0.69789466  0.60675658     0.08400
H589        H  0.81959947  0.67307342  0.61895625     0.07400
N590        N  0.90165241  0.66750241  0.65091165    -0.36400
N591        N  0.90120918  0.65608648  0.66287216    -0.28600
C592        C  0.91687172  0.65338419  0.66837889    -0.03800
C593        C  0.92770182  0.66365866  0.65949444     0.04800
C594        C  0.91754952  0.67245638  0.64856713     0.02900
H595        H  0.92010715  0.64439442  0.67795645     0.08000
H596        H  0.92145421  0.68131199  0.63908995     0.06800
N597        N  0.12525838  0.67942604  0.62597879    -0.27600
N598        N  0.13872949  0.67030465  0.62898511    -0.35400
C599        C  0.15125850  0.67551485  0.61903008     0.00800
C600        C  0.14550476  0.68865430  0.60932097     0.06800
C601        C  0.12896760  0.69085347  0.61413934    -0.06300
H602        H  0.16366492  0.67010364  0.61890537     0.07500
H603        H  0.12011128  0.69971446  0.60901974     0.08700
Cu604      Cu  0.13971608  0.65102138  0.64631349     0.44200
Cu605      Cu  0.10212121  0.67485979  0.63713588     0.42000
Cu606      Cu  0.10118183  0.64013664  0.66669407     0.43900
N607        N  0.13793903  0.63271276  0.66460654    -0.35000
N608        N  0.12376817  0.62867644  0.67209380    -0.29200
C609        C  0.12675423  0.61657892  0.68340195    -0.05300
C610        C  0.14370607  0.61279113  0.68309511     0.06900
C611        C  0.15034894  0.62332402  0.67095345     0.00700
H612        H  0.11723622  0.61112916  0.69133815     0.08400
H613        H  0.16323399  0.62416235  0.66690551     0.07400
N614        N  0.08020418  0.65344351  0.65936989    -0.36400
N615        N  0.08041834  0.66601306  0.64860460    -0.28600
C616        C  0.06463411  0.67140986  0.64627438    -0.03800
C617        C  0.05398406  0.66183002  0.65612566     0.04800
C618        C  0.06436129  0.65059004  0.66424783     0.02900
H619        H  0.06121145  0.68155845  0.63800485     0.08000
H620        H  0.06068261  0.64075227  0.67280249     0.06800
O621        O  0.22936919  0.78818628  0.47714158    -0.73200
O622        O  0.20458385  0.76413840  0.51360869    -0.74200
O623        O  0.22962932  0.78959628  0.51257723    -0.62800
O624        O  0.20445359  0.76273426  0.47814916    -0.71200
O625        O  0.22394318  0.74301708  0.47914697    -0.70800
O626        O  0.24964729  0.77038258  0.51261403    -0.62000
O627        O  0.22461871  0.74497104  0.51472001    -0.74500
O628        O  0.24880801  0.76837170  0.47722137    -0.73300
Cu629      Cu  0.21632047  0.77683174  0.49535773     1.04600
Cu630      Cu  0.23743611  0.75600504  0.49596271     1.04300
C631        C  0.24299158  0.78208818  0.47138143     0.93000
C632        C  0.21062909  0.75075233  0.51994634     0.92100
C633        C  0.24378132  0.78433552  0.51785683     0.84300
C634        C  0.21017066  0.74859075  0.47324230     0.90500
N635        N  0.86247207  0.67983357  0.36298891    -0.27600
N636        N  0.84816187  0.67257374  0.35897765    -0.35400
C637        C  0.83594370  0.67877809  0.36870542     0.00800
C638        C  0.84281519  0.69053963  0.37946343     0.06800
C639        C  0.85972377  0.69083032  0.37548012    -0.06300
H640        H  0.82304958  0.67470453  0.36813481     0.07500
H641        H  0.86934110  0.69851053  0.38112570     0.08700
Cu642      Cu  0.84563968  0.65400167  0.34104535     0.44200
Cu643      Cu  0.88497542  0.67431532  0.35123777     0.42000
Cu644      Cu  0.88342124  0.64113143  0.32019721     0.43900
N645        N  0.84657143  0.63441787  0.32405762    -0.35000
N646        N  0.86050812  0.62963488  0.31656790    -0.29200
C647        C  0.85722597  0.61638040  0.30674298    -0.05300
C648        C  0.84034309  0.61256520  0.30805098     0.06900
C649        C  0.83399473  0.62434347  0.31916257     0.00700
H650        H  0.86651798  0.61012332  0.29913910     0.08400
H651        H  0.82125299  0.62544349  0.32358876     0.07400
N652        N  0.90502075  0.65397798  0.32645342    -0.36400
N653        N  0.90557584  0.66611840  0.33769197    -0.28600
C654        C  0.92147778  0.67134988  0.33929737    -0.03800
C655        C  0.93149152  0.66199335  0.32861671     0.04800
C656        C  0.92055773  0.65111037  0.32065587     0.02900
H657        H  0.92547766  0.68082107  0.34811506     0.08000
H658        H  0.92362554  0.64157152  0.31153816     0.06800
N659        N  0.12871390  0.63150130  0.31435422    -0.27600
N660        N  0.14198254  0.63356546  0.32398218    -0.35400
C661        C  0.15412284  0.62306904  0.31889508     0.00800
C662        C  0.14825634  0.61399737  0.30531953     0.06800
C663        C  0.13210178  0.61974249  0.30276402    -0.06300
H664        H  0.16629735  0.62210191  0.32471392     0.07500
H665        H  0.12324006  0.61530371  0.29354728     0.08700
Cu666      Cu  0.14270913  0.65013766  0.34395076     0.44200
Cu667      Cu  0.10619491  0.64367325  0.31854988     0.42000
Cu668      Cu  0.10429584  0.67106659  0.35527242     0.43900
N669        N  0.14069521  0.66676083  0.36378503    -0.35000
N670        N  0.12666866  0.67436595  0.36813698    -0.29200
C671        C  0.12969411  0.68420694  0.38150007    -0.05300
C672        C  0.14649953  0.68280395  0.38570744     0.06900
C673        C  0.15300640  0.67158827  0.37415294     0.00700
H674        H  0.12039395  0.69205399  0.38745019     0.08400
H675        H  0.16576287  0.66716482  0.37327970     0.07400
N676        N  0.08377485  0.66472984  0.34057966    -0.36400
N677        N  0.08449131  0.65492706  0.32725305    -0.28600
C678        C  0.06893499  0.65264316  0.32127121    -0.03800
C679        C  0.05778936  0.66137911  0.33132925     0.04800
C680        C  0.06773541  0.66893887  0.34340526     0.02900
H681        H  0.06598566  0.64467893  0.31072658     0.08000
H682        H  0.06367994  0.67670864  0.35372968     0.06800
N683        N  0.86326137  0.37004276  0.31473546    -0.27600
N684        N  0.84998683  0.36794123  0.32439007    -0.35400
C685        C  0.83794857  0.37865403  0.31964896     0.00800
C686        C  0.84383230  0.38791483  0.30625519     0.06800
C687        C  0.85992781  0.38207730  0.30342314    -0.06300
H688        H  0.82572049  0.37945506  0.32541849     0.07500
H689        H  0.86869397  0.38647977  0.29408125     0.08700
Cu690      Cu  0.84847798  0.35040977  0.34334225     0.44200
Cu691      Cu  0.88545235  0.35694695  0.31819570     0.42000
Cu692      Cu  0.88475954  0.32482647  0.35062479     0.43900
N693        N  0.84918631  0.33135265  0.36081244    -0.35000
N694        N  0.86244171  0.32184773  0.36340308    -0.29200
C695        C  0.85889028  0.31065222  0.37544678    -0.05300
C696        C  0.84253343  0.31318927  0.38069586     0.06900
C697        C  0.83680529  0.32645568  0.37108750     0.00700
H698        H  0.86759246  0.30129801  0.37988733     0.08400
H699        H  0.82459851  0.33226953  0.37153171     0.07400
N700        N  0.90606774  0.33198006  0.33777111    -0.36400
N701        N  0.90637121  0.34368617  0.32608707    -0.28600
C702        C  0.92230815  0.34626364  0.32135662    -0.03800
C703        C  0.93259742  0.33570901  0.33052798     0.04800
C704        C  0.92177423  0.32678072  0.34075281     0.02900
H705        H  0.92606878  0.35549385  0.31218986     0.08000
H706        H  0.92504530  0.31770289  0.35022995     0.06800
N707        N  0.12736601  0.37441722  0.32157873    -0.27600
N708        N  0.14105000  0.37059409  0.33000767    -0.35400
C709        C  0.15362012  0.38058636  0.32498967     0.00800
C710        C  0.14759773  0.39130199  0.31278931     0.06800
C711        C  0.13085061  0.38707147  0.31102811    -0.06300
H712        H  0.16626551  0.37985987  0.32973295     0.07500
H713        H  0.12198933  0.39230811  0.30225739     0.08700
Cu714      Cu  0.14252807  0.35125911  0.34708234     0.44200
Cu715      Cu  0.10501718  0.36130998  0.32387472     0.42000
Cu716      Cu  0.10661889  0.32444832  0.35060007     0.43900
N717        N  0.14167852  0.33044684  0.36237245    -0.35000
N718        N  0.12867400  0.32026911  0.36329709    -0.29200
C719        C  0.13192670  0.30813276  0.37447099    -0.05300
C720        C  0.14770223  0.31094050  0.38101285     0.06900
C721        C  0.15352554  0.32517733  0.37302444     0.00700
H722        H  0.12315934  0.29844766  0.37807592     0.08400
H723        H  0.16541365  0.33138614  0.37491142     0.07400
N724        N  0.08527500  0.33264171  0.33864505    -0.36400
N725        N  0.08463755  0.34588521  0.32873673    -0.28600
C726        C  0.06873228  0.34814635  0.32375096    -0.03800
C727        C  0.05888950  0.33586921  0.33107432     0.04800
C728        C  0.06981886  0.32627099  0.34041075     0.02900
H729        H  0.06452663  0.35848374  0.31609208     0.08000
H730        H  0.06674302  0.31566564  0.34827113     0.06800
O731        O  0.23060033  0.48087684  0.20522540    -0.73200
O732        O  0.20470005  0.51694047  0.22899159    -0.74200
O733        O  0.22980622  0.51638906  0.20366938    -0.62800
O734        O  0.20553929  0.48137801  0.23049014    -0.71200
O735        O  0.22497861  0.48289769  0.25019555    -0.70800
O736        O  0.24981086  0.51698147  0.22285409    -0.62000
O737        O  0.22476669  0.51849227  0.24806218    -0.74500
O738        O  0.24997157  0.48149939  0.22505977    -0.73300
Cu739      Cu  0.21696774  0.49884932  0.21642099     1.04600
Cu740      Cu  0.23804928  0.50002955  0.23722539     1.04300
C741        C  0.24432312  0.47543904  0.21137965     0.93000
C742        C  0.21072522  0.52350856  0.24227907     0.92100
C743        C  0.24378329  0.52210045  0.20895912     0.84300
C744        C  0.21139395  0.47659068  0.24457904     0.90500
C745        C  0.15799054  0.42838978  0.28511032    -0.11100
C746        C  0.17545837  0.42704363  0.28353970     0.06000
C747        C  0.18372734  0.41394510  0.29185916    -0.09900
C748        C  0.17470962  0.40243221  0.30149001    -0.11500
C749        C  0.15722240  0.40372897  0.30294599    -0.01300
C750        C  0.14897266  0.41684513  0.29467265    -0.10400
C751        C  0.18496193  0.43935710  0.27333938     0.06000
H752        H  0.19714638  0.41244691  0.29071531     0.08000
H753        H  0.18143326  0.39234791  0.30752303     0.11400
H754        H  0.13555040  0.41831631  0.29571275     0.11700
H755        H  0.15129576  0.43852298  0.27910493     0.08000
C756        C  0.17852908  0.44507132  0.25801471    -0.11100
C757        C  0.18714906  0.45708191  0.24865636    -0.10400
C758        C  0.20240645  0.46367238  0.25440825    -0.01300
C759        C  0.20896560  0.45779722  0.26962932    -0.11500
C760        C  0.20035018  0.44574845  0.27897784    -0.09900
H761        H  0.16683992  0.44018488  0.25320630     0.08000
H762        H  0.18180334  0.46125341  0.23693528     0.11700
H763        H  0.22071424  0.46258714  0.27439193     0.11400
H764        H  0.20555735  0.44170515  0.29080526     0.08000
C765        C  0.97725311  0.32144572  0.33833043    -0.11100
C766        C  0.98655597  0.33413462  0.33039329     0.06000
C767        C  0.97792747  0.34731121  0.32258714    -0.09900
C768        C  0.96047255  0.34773696  0.32252197    -0.11500
C769        C  0.95115488  0.33504955  0.33040280    -0.01300
C770        C  0.95975941  0.32192883  0.33835656    -0.10400
C771        C  0.00516300  0.33374959  0.33029844     0.06000
H772        H  0.98466965  0.35751707  0.31670371     0.08000
H773        H  0.95435611  0.35817924  0.31650070     0.11400
H774        H  0.95302183  0.31186833  0.34446840     0.11700
H775        H  0.98346566  0.31100449  0.34428894     0.08000
C776        C  0.01411066  0.32804990  0.34431735    -0.11100
C777        C  0.03159362  0.32830915  0.34439339    -0.10400
C778        C  0.04048183  0.33451906  0.33054584    -0.01300
C779        C  0.03161875  0.33998616  0.31645465    -0.11500
C780        C  0.01415498  0.33947056  0.31625664    -0.09900
H781        H  0.00761606  0.32379528  0.35544021     0.08000
H782        H  0.03812381  0.32418501  0.35549845     0.11700
H783        H  0.03820452  0.34462000  0.30553236     0.11400
H784        H  0.00770213  0.34356187  0.30509912     0.08000
C785        C  0.16167227  0.58480084  0.27033315    -0.11100
C786        C  0.17428111  0.57527628  0.27809924     0.06000
C787        C  0.17801465  0.57851918  0.29500792    -0.09900
C788        C  0.16963527  0.59113614  0.30379042    -0.11500
C789        C  0.15710482  0.60063476  0.29598645    -0.01300
C790        C  0.15310211  0.59724667  0.27921905    -0.10400
C791        C  0.18362534  0.56214653  0.26862828     0.06000
H792        H  0.18732589  0.57119697  0.30156009     0.08000
H793        H  0.17279950  0.59326706  0.31678711     0.11400
H794        H  0.14358621  0.60446842  0.27284317     0.11700
H795        H  0.15861626  0.58288119  0.25728297     0.08000
C796        C  0.17565173  0.55238284  0.25630394    -0.11100
C797        C  0.18447852  0.53999608  0.24756709    -0.10400
C798        C  0.20142814  0.53693877  0.25109736    -0.01300
C799        C  0.20942115  0.54672436  0.26331887    -0.11500
C800        C  0.20067852  0.55923281  0.27188690    -0.09900
H801        H  0.16249215  0.55407573  0.25359542     0.08000
H802        H  0.17794942  0.53260949  0.23826376     0.11700
H803        H  0.22252006  0.54480030  0.26620202     0.11400
H804        H  0.20737416  0.56673202  0.28096746     0.08000
C805        C  0.97640812  0.67642067  0.33330584    -0.11100
C806        C  0.98535855  0.66264803  0.32698093     0.06000
C807        C  0.97642762  0.64903967  0.32027628    -0.09900
C808        C  0.95892483  0.64899188  0.32038838    -0.11500
C809        C  0.94998787  0.66253828  0.32724873    -0.01300
C810        C  0.95893997  0.67636258  0.33344898    -0.10400
C811        C  0.00391252  0.66230735  0.32793320     0.06000
H812        H  0.98296664  0.63818327  0.31543733     0.08000
H813        H  0.95246016  0.63809467  0.31557974     0.11400
H814        H  0.95248339  0.68714484  0.33852520     0.11700
H815        H  0.98293356  0.68725101  0.33822055     0.08000
C816        C  0.01356897  0.65598798  0.31464824    -0.11100
C817        C  0.03104560  0.65571801  0.31570043    -0.10400
C818        C  0.03924822  0.66173669  0.33007484    -0.01300
C819        C  0.02953328  0.66795610  0.34337163    -0.11500
C820        C  0.01210382  0.66822190  0.34231564    -0.09900
H821        H  0.00762074  0.65147537  0.30334165     0.08000
H822        H  0.03808141  0.65093243  0.30515905     0.11700
H823        H  0.03531323  0.67245941  0.35474459     0.11400
H824        H  0.00500612  0.67284587  0.35290776     0.08000
C825        C  0.17670944  0.73510782  0.44235631    -0.11100
C826        C  0.18284167  0.71957105  0.43677885     0.06000
C827        C  0.19808011  0.71366926  0.44328280    -0.09900
C828        C  0.20694360  0.72307318  0.45510773    -0.11500
C829        C  0.20079890  0.73861514  0.46068432    -0.01300
C830        C  0.18558375  0.74452753  0.45415036    -0.10400
C831        C  0.17350535  0.70970802  0.42403071     0.06000
H832        H  0.20306138  0.70167771  0.43936659     0.08000
H833        H  0.21861149  0.71813380  0.45990046     0.11400
H834        H  0.18052764  0.75647046  0.45811843     0.11700
H835        H  0.16514650  0.74012473  0.43739696     0.08000
C836        C  0.15594985  0.70855658  0.42461944    -0.11100
C837        C  0.14716949  0.69971237  0.41229584    -0.10400
C838        C  0.15574563  0.69179521  0.39911260    -0.01300
C839        C  0.17331620  0.69276173  0.39868445    -0.11500
C840        C  0.18207594  0.70161242  0.41097288    -0.09900
H841        H  0.14900130  0.71442866  0.43467494     0.08000
H842        H  0.13367034  0.69904694  0.41315998     0.11700
H843        H  0.18036445  0.68699852  0.38865561     0.11400
H844        H  0.19556936  0.70244712  0.41002093     0.08000
C845        C  0.16017508  0.72324135  0.58023762    -0.11100
C846        C  0.17321381  0.71532680  0.57135562     0.06000
C847        C  0.17684943  0.69847831  0.57506562    -0.09900
C848        C  0.16791059  0.68989992  0.58743647    -0.11500
C849        C  0.15489759  0.69782501  0.59621267    -0.01300
C850        C  0.15102495  0.71453810  0.59239941    -0.10400
C851        C  0.18292582  0.72454092  0.55827489     0.06000
H852        H  0.18647432  0.69178518  0.56826704     0.08000
H853        H  0.17101066  0.67693567  0.58992082     0.11400
H854        H  0.14115500  0.72100642  0.59907796     0.11700
H855        H  0.15716956  0.73626897  0.57801229     0.08000
C856        C  0.17518447  0.73681527  0.54830047    -0.11100
C857        C  0.18424936  0.74543628  0.53605021    -0.10400
C858        C  0.20123205  0.74185088  0.53324967    -0.01300
C859        C  0.20901142  0.72956588  0.54311179    -0.11500
C860        C  0.20001136  0.72111143  0.55555530    -0.09900
H861        H  0.16201075  0.73960362  0.54972152     0.08000
H862        H  0.17784849  0.75473083  0.52855197     0.11700
H863        H  0.22211363  0.72659737  0.54132710     0.11400
H864        H  0.20654168  0.71201668  0.56316464     0.08000
C865        C  0.97271117  0.65062441  0.66670939    -0.11100
C866        C  0.98158436  0.66442808  0.66027441     0.06000
C867        C  0.97252754  0.67825117  0.65425300    -0.09900
C868        C  0.95504273  0.67810968  0.65425127    -0.11500
C869        C  0.94620214  0.66417786  0.66038789    -0.01300
C870        C  0.95522101  0.65053896  0.66682078    -0.10400
C871        C  0.00018118  0.66419634  0.65945672     0.06000
H872        H  0.97896385  0.68922948  0.64953231     0.08000
H873        H  0.94846739  0.68892419  0.64945327     0.11400
H874        H  0.94879883  0.63953972  0.67149098     0.11700
H875        H  0.97927117  0.63967595  0.67122733     0.08000
C876        C  0.00963299  0.65694605  0.67237371    -0.11100
C877        C  0.02707944  0.65625502  0.67132270    -0.10400
C878        C  0.03550425  0.66291659  0.65737574    -0.01300
C879        C  0.02609341  0.67036157  0.64455963    -0.11500
C880        C  0.00863360  0.67093796  0.64554524    -0.09900
H881        H  0.00354948  0.65189289  0.68339416     0.08000
H882        H  0.03395658  0.65063517  0.68152090     0.11700
H883        H  0.03217507  0.67543028  0.63355236     0.11400
H884        H  0.00173996  0.67634016  0.63523595     0.08000
C885        C  0.17430663  0.55740522  0.73760763    -0.11100
C886        C  0.17935206  0.56252972  0.72152743     0.06000
C887        C  0.19330453  0.55475288  0.71414701    -0.09900
C888        C  0.20209706  0.54230441  0.72264323    -0.11500
C889        C  0.19710907  0.53719141  0.73870844    -0.01300
C890        C  0.18308127  0.54483535  0.74610287    -0.10400
C891        C  0.17015682  0.57584107  0.71232672     0.06000
H892        H  0.19733035  0.55812842  0.70165518     0.08000
H893        H  0.21276270  0.53658594  0.71652646     0.11400
H894        H  0.17896650  0.54120549  0.75849802     0.11700
H895        H  0.16371773  0.56326458  0.74371707     0.08000
C896        C  0.15260304  0.57675523  0.71291829    -0.11100
C897        C  0.14401304  0.58882235  0.70358212    -0.10400
C898        C  0.15277298  0.60025582  0.69342163    -0.01300
C899        C  0.17034484  0.59950592  0.69310990    -0.11500
C900        C  0.17890917  0.58749249  0.70245521    -0.09900
H901        H  0.14546397  0.56786502  0.72025556     0.08000
H902        H  0.13049324  0.58893506  0.70414683     0.11700
H903        H  0.17759638  0.60819736  0.68568341     0.11400
H904        H  0.19245130  0.58737984  0.70198627     0.08000
C905        C  0.17812635  0.44249370  0.73353770    -0.11100
C906        C  0.18201015  0.44004835  0.71655220     0.06000
C907        C  0.19450437  0.44995077  0.70911983    -0.09900
C908        C  0.20296451  0.46202804  0.71849569    -0.11500
C909        C  0.19899416  0.46452544  0.73544714    -0.01300
C910        C  0.18648393  0.45466748  0.74287276    -0.10400
C911        C  0.17304337  0.42718979  0.70666514     0.06000
H912        H  0.19759521  0.44851075  0.69599858     0.08000
H913        H  0.21248769  0.46953615  0.71242062     0.11400
H914        H  0.18327855  0.45623014  0.75595441     0.11700
H915        H  0.16876002  0.43484725  0.73967562     0.08000
C916        C  0.18167328  0.41714159  0.69508596    -0.11100
C917        C  0.17323139  0.40480320  0.68602801    -0.10400
C918        C  0.15598443  0.40224557  0.68837474    -0.01300
C919        C  0.14735767  0.41241842  0.69986567    -0.11500
C920        C  0.15578800  0.42476158  0.70887958    -0.09900
H921        H  0.19501552  0.41862122  0.69323077     0.08000
H922        H  0.18028400  0.39731620  0.67721333     0.11700
H923        H  0.13410472  0.41082993  0.70207301     0.11400
H924        H  0.14875392  0.43249076  0.71752919     0.08000
C925        C  0.97471188  0.34433582  0.66818576    -0.11100
C926        C  0.98385436  0.33933218  0.65398445     0.06000
C927        C  0.97509993  0.33389330  0.63973910    -0.09900
C928        C  0.95765231  0.33364247  0.63958735    -0.11500
C929        C  0.94851801  0.33900767  0.65362120    -0.01300
C930        C  0.95721232  0.34423075  0.66797382    -0.10400
C931        C  0.00241569  0.34024436  0.65372107     0.06000
H932        H  0.98172620  0.33026213  0.62847393     0.08000
H933        H  0.95135535  0.32974613  0.62826009     0.11400
H934        H  0.95050205  0.34822830  0.67906032     0.11700
H935        H  0.98107768  0.34832607  0.67945082     0.08000
C936        C  0.01086742  0.35373930  0.66122787    -0.11100
C937        C  0.02826372  0.35511584  0.66000521    -0.10400
C938        C  0.03759593  0.34303641  0.65119956    -0.01300
C939        C  0.02915581  0.32937064  0.64401443    -0.11500
C940        C  0.01180067  0.32796278  0.64529738    -0.09900
H941        H  0.00399793  0.36353616  0.66763040     0.08000
H942        H  0.03428805  0.36585043  0.66564899     0.11700
H943        H  0.03590139  0.31965952  0.63739001     0.11400
H944        H  0.00572265  0.31722801  0.63967545     0.08000
C945        C  0.27419253  0.41480133  0.16305408    -0.11100
C946        C  0.28180709  0.42431599  0.17579960     0.06000
C947        C  0.29886303  0.42158525  0.17925054    -0.09900
C948        C  0.30802211  0.40971945  0.17016763    -0.11500
C949        C  0.30043330  0.40057930  0.15721961    -0.01300
C950        C  0.28345224  0.40322498  0.15374550    -0.10400
C951        C  0.27207437  0.43725383  0.18513695     0.06000
H952        H  0.30526069  0.42883751  0.18874004     0.08000
H953        H  0.32115150  0.40796711  0.17300833     0.11400
H954        H  0.27725001  0.39611925  0.14400575     0.11700
H955        H  0.26101310  0.41619844  0.16029810     0.08000
C956        C  0.25949988  0.44651488  0.17701856    -0.11100
C957        C  0.25038083  0.45871048  0.18562368    -0.10400
C958        C  0.25376587  0.46218459  0.20250066    -0.01300
C959        C  0.26635574  0.45304344  0.21067273    -0.11500
C960        C  0.27532922  0.44063455  0.20212464    -0.09900
H961        H  0.25686417  0.44459150  0.16387807     0.08000
H962        H  0.24086630  0.46565693  0.17893991     0.11700
H963        H  0.26916844  0.45537429  0.22372221     0.11400
H964        H  0.28469852  0.43359399  0.20889676     0.08000
C965        C  0.25301050  0.44169186  0.80803113    -0.11100
C966        C  0.26912594  0.43740795  0.80242090     0.06000
C967        C  0.27568414  0.44559602  0.78830186    -0.09900
C968        C  0.26648918  0.45808556  0.78021869    -0.11500
C969        C  0.25054067  0.46266956  0.78608604    -0.01300
C970        C  0.24381538  0.45418212  0.79995637    -0.10400
C971        C  0.27924433  0.42481118  0.81157245     0.06000
H972        H  0.28811413  0.44265546  0.78376750     0.08000
H973        H  0.27200510  0.46434044  0.76952759     0.11400
H974        H  0.23147724  0.45725669  0.80465167     0.11700
H975        H  0.24751389  0.43537910  0.81869914     0.08000
C976        C  0.27955470  0.42479682  0.82914162    -0.11100
C977        C  0.28919003  0.41310855  0.83784556    -0.10400
C978        C  0.29872724  0.40108781  0.82919687    -0.01300
C979        C  0.29845894  0.40116436  0.81158568    -0.11500
C980        C  0.28884462  0.41290322  0.80288098    -0.09900
H981        H  0.27252207  0.43401589  0.83618242     0.08000
H982        H  0.28917406  0.41362860  0.85136276     0.11700
H983        H  0.30552643  0.39208848  0.80443835     0.11400
H984        H  0.28874174  0.41251967  0.78933492     0.08000
C985        C  0.34771369  0.33268056  0.97508818    -0.11100
C986        C  0.33356891  0.33890200  0.98353310     0.06000
C987        C  0.32062176  0.34613283  0.97409385    -0.09900
C988        C  0.32187394  0.34734265  0.95669113    -0.11500
C989        C  0.33607876  0.34125968  0.94826968    -0.01300
C990        C  0.34893131  0.33381788  0.95767389    -0.10400
C991        C  0.33260331  0.33835940  0.00212970     0.06000
H992        H  0.30942087  0.35079734  0.98015483     0.08000
H993        H  0.31163362  0.35294546  0.94987259     0.11400
H994        H  0.36014242  0.32914307  0.95166707     0.11700
H995        H  0.35804974  0.32730181  0.98196572     0.08000
C996        C  0.33895189  0.32462982  0.01111580    -0.11100
C997        C  0.33883233  0.32461690  0.02862825    -0.10400
C998        C  0.33230390  0.33833312  0.03757677    -0.01300
C999        C  0.32554560  0.35183470  0.02856970    -0.11500
C1000       C  0.32573800  0.35188297  0.01109121    -0.09900
H1001       H  0.34403807  0.31385431  0.00460722     0.05600
H1002       H  0.34390692  0.31388360  0.03511007     0.11700
H1003       H  0.32051571  0.36268284  0.03496835     0.11400
H1004       H  0.32096663  0.36276957  0.00461492     0.08000
C1005       C  0.27902479  0.57382584  0.15384422    -0.11100
C1006       C  0.27996469  0.57256186  0.17135985     0.06000
C1007       C  0.28970671  0.58426655  0.18015828    -0.09900
C1008       C  0.29837149  0.59686907  0.17169224    -0.11500
C1009       C  0.29753966  0.59814747  0.15416146    -0.01300
C1010       C  0.28771962  0.58646197  0.14534023    -0.10400
C1011       C  0.27082124  0.55918200  0.18053893     0.06000
H1012       H  0.29046004  0.58384182  0.19367981     0.08000
H1013       H  0.30563696  0.60562147  0.17901971     0.11400
H1014       H  0.28677281  0.58694432  0.13185415     0.11700
H1015       H  0.27175834  0.56489433  0.14668283     0.08000
C1016       C  0.25447739  0.55457173  0.17592473    -0.11100
C1017       C  0.24571374  0.54242799  0.18504364    -0.10400
C1018       C  0.25309318  0.53468469  0.19899959    -0.01300
C1019       C  0.26950918  0.53912828  0.20344737    -0.11500
C1020       C  0.27827827  0.55118366  0.19430309    -0.09900
H1021       H  0.24831864  0.56062142  0.16549458     0.08000
H1022       H  0.23307243  0.53928741  0.18131029     0.11700
H1023       H  0.27562461  0.53327025  0.21401493     0.11400
H1024       H  0.29095862  0.55420953  0.19799133     0.08000
C1025       C  0.41047762  0.70106069  0.18064623    -0.11100
C1026       C  0.41581431  0.71701782  0.17539425     0.06000
C1027       C  0.40830618  0.72412811  0.16114424    -0.09900
C1028       C  0.39593220  0.71544156  0.15231908    -0.11500
C1029       C  0.39060605  0.69954932  0.15765633    -0.01300
C1030       C  0.39796056  0.69248680  0.17195167    -0.10400
C1031       C  0.42928031  0.72606791  0.18462031     0.06000
H1032       H  0.41183739  0.73650612  0.15688735     0.08000
H1033       H  0.39037306  0.72129584  0.14145176     0.11400
H1034       H  0.39431689  0.68015742  0.17625110     0.11700
H1035       H  0.41618917  0.69499984  0.19131786     0.08000
C1036       C  0.43077026  0.72457180  0.20211422    -0.11100
C1037       C  0.44372904  0.73263619  0.21068754    -0.10400
C1038       C  0.45529876  0.74264228  0.20202851    -0.01300
C1039       C  0.45368823  0.74441565  0.18462849    -0.11500
C1040       C  0.44093114  0.73610325  0.17600282    -0.09900
H1041       H  0.42184321  0.71727837  0.20923913     0.08000
H1042       H  0.44455516  0.73124077  0.22414540     0.11700
H1043       H  0.46250651  0.75198125  0.17763347     0.11400
H1044       H  0.44040975  0.73732457  0.16252374     0.08000
C1045       C  0.29102343  0.58116985  0.81004322    -0.11100
C1046       C  0.27425049  0.57764232  0.81414763     0.06000
C1047       C  0.26642509  0.58727386  0.82667272    -0.09900
C1048       C  0.27524963  0.59987933  0.83506508    -0.11500
C1049       C  0.29196402  0.60332464  0.83089802    -0.01300
C1050       C  0.29971346  0.59397343  0.81820330    -0.10400
C1051       C  0.26508657  0.56390568  0.80545125     0.06000
H1052       H  0.25344368  0.58516202  0.82992725     0.08000
H1053       H  0.26894418  0.60707628  0.84468200     0.11400
H1054       H  0.31265696  0.59625751  0.81488567     0.11700
H1055       H  0.29759197  0.57382675  0.80072823     0.08000
C1056       C  0.26814983  0.56056733  0.78844346    -0.11100
C1057       C  0.26004010  0.54737969  0.78034361    -0.10400
C1058       C  0.24846341  0.53731555  0.78894358    -0.01300
C1059       C  0.24511649  0.54075341  0.80585986    -0.11500
C1060       C  0.25342436  0.55384908  0.81405910    -0.09900
H1061       H  0.27671697  0.56825510  0.78128726     0.08000
H1062       H  0.26269518  0.54521200  0.76722270     0.11700
H1063       H  0.23625342  0.53319546  0.81280311     0.11400
H1064       H  0.25091374  0.55589117  0.82721938     0.08000
C1065       C  0.33719522  0.67869975  0.97482914    -0.11100
C1066       C  0.33104713  0.66505684  0.98408767     0.06000
C1067       C  0.32439065  0.65121323  0.97548331    -0.09900
C1068       C  0.32388932  0.65099348  0.95804205    -0.11500
C1069       C  0.33013941  0.66455475  0.94876339    -0.01300
C1070       C  0.33676765  0.67844483  0.95734255    -0.10400
C1071       C  0.33165127  0.66507240  0.00264155     0.06000
H1072       H  0.31985084  0.64036636  0.98223177     0.08000
H1073       H  0.31891556  0.63999521  0.95186959     0.11400
H1074       H  0.34151925  0.68918401  0.95058469     0.11700
H1075       H  0.34218619  0.68964855  0.98110290     0.08000
C1076       C  0.34565043  0.67144286  0.01119863    -0.11100
C1077       C  0.34641484  0.67074980  0.02866405    -0.10400
C1078       C  0.33327208  0.66354794  0.03786831    -0.01300
C1079       C  0.31920089  0.65741714  0.02934006    -0.11500
C1080       C  0.31835950  0.65825785  0.01193631    -0.09900
H1081       H  0.35618389  0.67657590  0.00438380     0.08000
H1082       H  0.35747956  0.67545321  0.03491466     0.11700
H1083       H  0.30875659  0.65206892  0.03611874     0.11400
H1084       H  0.30724726  0.65358134  0.00574460     0.08000
C1085       C  0.57896481  0.70434267  0.18326421    -0.11100
C1086       C  0.56692363  0.71352378  0.17438861     0.06000
C1087       C  0.56768413  0.71380878  0.15684127    -0.09900
C1088       C  0.58019912  0.70500695  0.14832273    -0.11500
C1089       C  0.59230279  0.69579653  0.15717938    -0.01300
C1090       C  0.59153258  0.69562072  0.17476885    -0.10400
C1091       C  0.55365012  0.72280730  0.18344171     0.06000
H1092       H  0.55843980  0.72066221  0.14969446     0.08000
H1093       H  0.58024805  0.70535497  0.13479997     0.11400
H1094       H  0.60068954  0.68886183  0.18207169     0.11700
H1095       H  0.57878959  0.70410245  0.19681269     0.08000
C1096       C  0.54497593  0.71524360  0.19674008    -0.11100
C1097       C  0.53261328  0.72406560  0.20542944    -0.10400
C1098       C  0.52869423  0.74064704  0.20100726    -0.01300
C1099       C  0.53732444  0.74817695  0.18764775    -0.11500
C1100       C  0.54966749  0.73933642  0.17894455    -0.09900
H1101       H  0.54767633  0.70244509  0.20032519     0.08000
H1102       H  0.52611223  0.71788221  0.21559732     0.11700
H1103       H  0.53466090  0.76096749  0.18401273     0.11400
H1104       H  0.55630202  0.74551339  0.16885825     0.08000
C1105       C  0.64531865  0.67254471  0.97649886    -0.11100
C1106       C  0.65768860  0.66372658  0.98537113     0.06000
C1107       C  0.66991192  0.65493579  0.97622013    -0.09900
C1108       C  0.66958242  0.65468821  0.95871627    -0.11500
C1109       C  0.65707155  0.66329415  0.94984793    -0.01300
C1110       C  0.64503055  0.67235636  0.95898261    -0.10400
C1111       C  0.65758709  0.66331254  0.00405031     0.06000
H1112       H  0.67983530  0.64828354  0.98258526     0.08000
H1113       H  0.67922086  0.64776672  0.95218486     0.11400
H1114       H  0.63513097  0.67906531  0.95267130     0.11700
H1115       H  0.63555832  0.67926265  0.98308545     0.08000
C1116       C  0.65274030  0.67744189  0.01343949    -0.11100
C1117       C  0.65212373  0.67677893  0.03094348    -0.10400
C1118       C  0.65655642  0.66205993  0.03947878    -0.01300
C1119       C  0.66164452  0.64803282  0.03016199    -0.11500
C1120       C  0.66204116  0.64860915  0.01267380    -0.09900
H1121       H  0.64951007  0.68906672  0.00727270     0.08000
H1122       H  0.64833403  0.68785103  0.03780949     0.11700
H1123       H  0.66492091  0.63644246  0.03636996     0.11400
H1124       H  0.66550611  0.63737833  0.00590376     0.08000
C1125       C  0.78973113  0.55378274  0.27801906    -0.11100
C1126       C  0.80468271  0.56071499  0.27186047     0.06000
C1127       C  0.81082707  0.55520801  0.25630121    -0.09900
C1128       C  0.80221837  0.54304137  0.24712271    -0.11500
C1129       C  0.78726260  0.53612985  0.25329473    -0.01300
C1130       C  0.78111271  0.54164483  0.26883692    -0.10400
C1131       C  0.81377870  0.57371695  0.28156711     0.06000
H1132       H  0.82218386  0.56047772  0.25109632     0.08000
H1133       H  0.80726724  0.53908494  0.23517605     0.11400
H1134       H  0.76965940  0.53651889  0.27398005     0.11700
H1135       H  0.78479146  0.55758356  0.29005972     0.08000
C1136       C  0.80498790  0.58635961  0.29011055    -0.11100
C1137       C  0.81357519  0.59883281  0.29889584    -0.10400
C1138       C  0.83115926  0.59898468  0.29929435    -0.01300
C1139       C  0.83992394  0.58616666  0.29097674    -0.11500
C1140       C  0.83133979  0.57368895  0.28222828    -0.09900
H1141       H  0.79145583  0.58684646  0.28968894     0.08000
H1142       H  0.80638898  0.60852596  0.30505749     0.11700
H1143       H  0.85344308  0.58567252  0.29122171     0.11400
H1144       H  0.83847011  0.56393207  0.27606737     0.08000
C1145       C  0.82890930  0.41629885  0.27138431    -0.11100
C1146       C  0.81670092  0.42606462  0.27957533     0.06000
C1147       C  0.81380395  0.42325430  0.29672194    -0.09900
C1148       C  0.82259830  0.41084884  0.30532857    -0.11500
C1149       C  0.83476280  0.40118366  0.29711476    -0.01300
C1150       C  0.83796139  0.40412829  0.28010976    -0.10400
C1151       C  0.80700538  0.43904932  0.27030408     0.06000
H1152       H  0.80485601  0.43075059  0.30360910     0.08000
H1153       H  0.82004782  0.40899939  0.31850788     0.11400
H1154       H  0.84715881  0.39672145  0.27343970     0.11700
H1155       H  0.83129711  0.41780396  0.25814176     0.08000
C1156       C  0.81434639  0.44800674  0.25702497    -0.11100
C1157       C  0.80521097  0.46004686  0.24824046    -0.10400
C1158       C  0.78857277  0.46362772  0.25266148    -0.01300
C1159       C  0.78123960  0.45484508  0.26600397    -0.11500
C1160       C  0.79028658  0.44261578  0.27463155    -0.09900
H1161       H  0.82726558  0.44592459  0.25351450     0.08000
H1162       H  0.81126441  0.46669760  0.23809819     0.11700
H1163       H  0.76840601  0.45725942  0.26965705     0.11400
H1164       H  0.78404085  0.43579188  0.28452437     0.08000
C1165       C  0.69344151  0.57962965  0.17949318    -0.11100
C1166       C  0.71004041  0.57563314  0.17515247     0.06000
C1167       C  0.71769782  0.58457629  0.16201657    -0.09900
C1168       C  0.70893522  0.59705273  0.15340247    -0.11500
C1169       C  0.69245050  0.60109405  0.15793471    -0.01300
C1170       C  0.68482247  0.59230739  0.17109826    -0.10400
C1171       C  0.71922109  0.56215530  0.18423980     0.06000
H1172       H  0.73054259  0.58210655  0.15849772     0.08000
H1173       H  0.71516192  0.60375013  0.14339149     0.11400
H1174       H  0.67203252  0.59498525  0.17469089     0.11700
H1175       H  0.68695507  0.57279103  0.18923027     0.08000
C1176       C  0.71636553  0.55934881  0.20140537    -0.11100
C1177       C  0.72467251  0.54648271  0.20985392    -0.10400
C1178       C  0.73627064  0.53630280  0.20143739    -0.01300
C1179       C  0.73930839  0.53916590  0.18436312    -0.11500
C1180       C  0.73079385  0.55184986  0.17583348    -0.09900
H1181       H  0.70785307  0.56722429  0.20841904     0.08000
H1182       H  0.72222878  0.54469596  0.22306804     0.11700
H1183       H  0.74812200  0.53144597  0.17753032     0.11400
H1184       H  0.73311875  0.55338431  0.16257668     0.08000
C1185       C  0.73459046  0.44384724  0.17719823    -0.11100
C1186       C  0.71908003  0.43794916  0.18308010     0.06000
C1187       C  0.71259954  0.44458406  0.19804260    -0.09900
C1188       C  0.72138528  0.45683794  0.20689694    -0.11500
C1189       C  0.73683460  0.46281146  0.20096958    -0.01300
C1190       C  0.74337106  0.45615082  0.18604299    -0.10400
C1191       C  0.70965288  0.42494053  0.17369122     0.06000
H1192       H  0.70057899  0.44049736  0.20279342     0.08000
H1193       H  0.71598112  0.46172801  0.21833541     0.11400
H1194       H  0.75528167  0.46043443  0.18118397     0.11700
H1195       H  0.74004223  0.43881559  0.16584733     0.08000
C1196       C  0.70910129  0.42516232  0.15611185    -0.11100
C1197       C  0.70008277  0.41298123  0.14734006    -0.10400
C1198       C  0.69138104  0.40032149  0.15595148    -0.01300
C1199       C  0.69194929  0.40012069  0.17352627    -0.11500
C1200       C  0.70099914  0.41225029  0.18227829    -0.09900
H1201       H  0.71541634  0.43492164  0.14912833     0.08000
H1202       H  0.69979376  0.41365499  0.13382559     0.11700
H1203       H  0.68559953  0.39047200  0.18060081     0.11400
H1204       H  0.70140200  0.41154322  0.19580178     0.08000
C1205       C  0.64517101  0.32656838  0.97486698    -0.11100
C1206       C  0.65408926  0.33899051  0.98358678     0.06000
C1207       C  0.66316308  0.35097183  0.97442405    -0.09900
C1208       C  0.66323279  0.35060198  0.95695917    -0.11500
C1209       C  0.65413677  0.33831414  0.94825151    -0.01300
C1210       C  0.64515573  0.32626203  0.95740535    -0.10400
C1211       C  0.65376323  0.33956568  0.00214936     0.06000
H1212       H  0.66993805  0.36087704  0.98073707     0.08000
H1213       H  0.67013863  0.36019264  0.95033238     0.11400
H1214       H  0.63819370  0.31647947  0.95112703     0.11700
H1215       H  0.63831119  0.31695758  0.98153775     0.08000
C1216       C  0.63901098  0.33570414  0.01093383    -0.11100
C1217       C  0.63864823  0.33629054  0.02837766    -0.10400
C1218       C  0.65297366  0.34091389  0.03743508    -0.01300
C1219       C  0.66771065  0.34484852  0.02869806    -0.11500
C1220       C  0.66812698  0.34409994  0.01123898    -0.09900
H1221       H  0.62763347  0.33249834  0.00432353     0.08000
H1222       H  0.62702286  0.33343017  0.03472565     0.11700
H1223       H  0.67899881  0.34827670  0.03534376     0.11400
H1224       H  0.67976968  0.34687784  0.00487361     0.08000
C1225       C  0.18257890  0.29490497  0.57982222    -0.11100
C1226       C  0.17385585  0.28414984  0.56899553     0.06000
C1227       C  0.15641573  0.28283778  0.57050122    -0.09900
C1228       C  0.14782920  0.29215861  0.58253723    -0.11500
C1229       C  0.15650013  0.30297796  0.59339725    -0.01300
C1230       C  0.17400570  0.30419572  0.59191526    -0.10400
C1231       C  0.18286757  0.27449213  0.55599565     0.06000
H1232       H  0.14936942  0.27477867  0.56217559     0.08000
H1233       H  0.13439029  0.29081038  0.58324935     0.11400
H1234       H  0.18116733  0.31235883  0.59999455     0.11700
H1235       H  0.19606311  0.29602578  0.57901807     0.08000
C1236       C  0.19533101  0.28220299  0.54629102    -0.11100
C1237       C  0.20368812  0.27318896  0.53386741    -0.10400
C1238       C  0.19972559  0.25628981  0.53087186    -0.01300
C1239       C  0.18724327  0.24857244  0.54056066    -0.11500
C1240       C  0.17891262  0.25758857  0.55303467    -0.09900
H1241       H  0.19844104  0.29528265  0.54815099     0.08000
H1242       H  0.21315875  0.27951297  0.52649675     0.11700
H1243       H  0.18402089  0.23553611  0.53860145     0.11400
H1244       H  0.16947418  0.25130698  0.56047942     0.08000
C1245       C  0.17511345  0.30099142  0.41808989    -0.11100
C1246       C  0.17205823  0.28380023  0.42039110     0.06000
C1247       C  0.16067523  0.27563919  0.40972621    -0.09900
C1248       C  0.15264886  0.28447566  0.39696544    -0.11500
C1249       C  0.15601897  0.30155957  0.39451685    -0.01300
C1250       C  0.16728843  0.30973802  0.40520560    -0.10400
C1251       C  0.18108346  0.27439467  0.43358422     0.06000
H1252       H  0.15823183  0.26235897  0.41101004     0.08000
H1253       H  0.14407259  0.27786952  0.38880674     0.11400
H1254       H  0.16986789  0.32298018  0.40379216     0.11700
H1255       H  0.18350598  0.30774096  0.42631839     0.08000
C1256       C  0.19794319  0.27804567  0.43701276    -0.11100
C1257       C  0.20657807  0.26923047  0.44931599    -0.10400
C1258       C  0.19862897  0.25642336  0.45834788    -0.01300
C1259       C  0.18178955  0.25268633  0.45493650    -0.11500
C1260       C  0.17307468  0.26164503  0.44271819    -0.09900
H1261       H  0.20458588  0.28754673  0.42998673     0.08000
H1262       H  0.21958633  0.27230214  0.45158158     0.11700
H1263       H  0.17531570  0.24294647  0.46180092     0.11400
H1264       H  0.16002721  0.25869589  0.44054321     0.08000
C1265       C  0.58156289  0.29170676  0.80411024    -0.11100
C1266       C  0.56873711  0.28320030  0.81255903     0.06000
C1267       C  0.56801482  0.28389303  0.83008846    -0.09900
C1268       C  0.57983047  0.29313457  0.83902394    -0.11500
C1269       C  0.59259813  0.30180277  0.83056745    -0.01300
C1270       C  0.59339047  0.30089818  0.81302083    -0.10400
C1271       C  0.55592759  0.27394116  0.80305299     0.06000
H1272       H  0.55809736  0.27757685  0.83685420     0.08000
H1273       H  0.57876278  0.29366508  0.85250620     0.11400
H1274       H  0.60318447  0.30717592  0.80608969     0.11700
H1275       H  0.58250132  0.29115028  0.79059862     0.08000
C1276       C  0.54863195  0.28118515  0.78883681    -0.11100
C1277       C  0.53629776  0.27262549  0.77998012    -0.10400
C1278       C  0.53102683  0.25666517  0.78519402    -0.01300
C1279       C  0.53842480  0.24936347  0.79934993    -0.11500
C1280       C  0.55077674  0.25794404  0.80821405    -0.09900
H1281       H  0.55227075  0.29359976  0.78474137     0.08000
H1282       H  0.53078137  0.27859445  0.76914590     0.11700
H1283       H  0.53468296  0.23702693  0.80357579     0.11400
H1284       H  0.55638998  0.25204347  0.81903630     0.08000
C1285       C  0.44004992  0.26131882  0.80916037    -0.11100
C1286       C  0.43437575  0.27687760  0.80326298     0.06000
C1287       C  0.44111563  0.28334510  0.78835565    -0.09900
C1288       C  0.45315915  0.27436520  0.77943651    -0.11500
C1289       C  0.45873365  0.25874615  0.78526325    -0.01300
C1290       C  0.45211956  0.25235018  0.80026056    -0.10400
C1291       C  0.42138565  0.28630489  0.81253894     0.06000
H1292       H  0.43718536  0.29543838  0.78365909     0.08000
H1293       H  0.45810481  0.27967540  0.76798465     0.11400
H1294       H  0.45617705  0.24034753  0.80508230     0.11700
H1295       H  0.43495130  0.25593788  0.82051101     0.08000
C1296       C  0.40863211  0.29467308  0.80385805    -0.11100
C1297       C  0.39650864  0.30377784  0.81251493    -0.10400
C1298       C  0.39683421  0.30470924  0.83007607    -0.01300
C1299       C  0.40951556  0.29617610  0.83877128    -0.11500
C1300       C  0.42166071  0.28707465  0.83009268    -0.09900
H1301       H  0.40791384  0.29403936  0.79034076     0.08000
H1302       H  0.38685776  0.30997025  0.80535956     0.11700
H1303       H  0.41026595  0.29665389  0.85227051     0.11400
H1304       H  0.43145372  0.28089907  0.83711405     0.08000
C1305       C  0.26877712  0.16571522  0.57932920    -0.11100
C1306       C  0.27658627  0.17861448  0.57013847     0.06000
C1307       C  0.29323515  0.18282865  0.57407058    -0.09900
C1308       C  0.30172248  0.17458432  0.58689701    -0.11500
C1309       C  0.29396561  0.16161690  0.59585620    -0.01300
C1310       C  0.27745203  0.15717703  0.59190453    -0.10400
C1311       C  0.26752211  0.18760502  0.55650634     0.06000
H1312       H  0.29990729  0.19231710  0.56706848     0.08000
H1313       H  0.31454538  0.17809661  0.58951124     0.11400
H1314       H  0.27114075  0.14731365  0.59875152     0.11700
H1315       H  0.25588478  0.16230529  0.57699745     0.08000
C1316       C  0.25524584  0.17940062  0.54687488    -0.11100
C1317       C  0.24676916  0.18788077  0.53415016    -0.10400
C1318       C  0.25057315  0.20467099  0.53052117    -0.01300
C1319       C  0.26291174  0.21285608  0.53996425    -0.11500
C1320       C  0.27114857  0.20449993  0.55289866    -0.09900
H1321       H  0.25229945  0.16633321  0.54895485     0.08000
H1322       H  0.23735770  0.18121794  0.52702190     0.11700
H1323       H  0.26598910  0.22585613  0.53757880     0.11400
H1324       H  0.28017587  0.21144687  0.56022284     0.08000
C1325       C  0.42377346  0.16270079  0.70035301    -0.11100
C1326       C  0.42251284  0.18014853  0.70243016     0.06000
C1327       C  0.40896024  0.18862929  0.69514695    -0.09900
C1328       C  0.39675470  0.17982821  0.68630277    -0.11500
C1329       C  0.39774660  0.16233718  0.68466968    -0.01300
C1330       C  0.41147343  0.15387316  0.69162207    -0.10400
C1331       C  0.43497772  0.18942411  0.71257114     0.06000
H1332       H  0.40748667  0.20202291  0.69671139     0.08000
H1333       H  0.38626658  0.18671376  0.68123141     0.11400
H1334       H  0.41273143  0.14043185  0.69033442     0.11700
H1335       H  0.43426194  0.15585429  0.70550349     0.08000
C1336       C  0.44146376  0.18235068  0.72729810    -0.11100
C1337       C  0.45296818  0.19117625  0.73703152    -0.10400
C1338       C  0.45821787  0.20726779  0.73224920    -0.01300
C1339       C  0.45169436  0.21438788  0.71757398    -0.11500
C1340       C  0.44021169  0.20555158  0.70782689    -0.09900
H1341       H  0.43746367  0.17007385  0.73145243     0.08000
H1342       H  0.45780204  0.18535104  0.74826127     0.11700
H1343       H  0.45554084  0.22675805  0.71353898     0.11400
H1344       H  0.43560226  0.21127198  0.69645310     0.08000
C1345       C  0.28043507  0.83985305  0.56830380    -0.11100
C1346       C  0.28139854  0.82231217  0.56698000     0.06000
C1347       C  0.29126165  0.81350131  0.57854068    -0.09900
C1348       C  0.29988374  0.82197463  0.59117509    -0.11500
C1349       C  0.29888709  0.83951003  0.59259588    -0.01300
C1350       C  0.28909222  0.84835701  0.58095846    -0.10400
C1351       C  0.27195654  0.81311051  0.55383004     0.06000
H1352       H  0.29204936  0.79996225  0.57803690     0.08000
H1353       H  0.30711264  0.81467454  0.59996440     0.11400
H1354       H  0.28815684  0.86186982  0.58151594     0.11700
H1355       H  0.27310164  0.84701362  0.55945755     0.08000
C1356       C  0.25538415  0.81752320  0.54992398    -0.11100
C1357       C  0.24625717  0.80828958  0.53814675    -0.10400
C1358       C  0.25349419  0.79441905  0.53005075    -0.01300
C1359       C  0.27016092  0.79020848  0.53374136    -0.11500
C1360       C  0.27928459  0.79945652  0.54546295    -0.09900
H1361       H  0.24933162  0.82786682  0.55627899     0.08000
H1362       H  0.23344273  0.81185494  0.53558271     0.11700
H1363       H  0.27618084  0.77973146  0.52757389     0.11400
H1364       H  0.29211520  0.79591818  0.54798183     0.08000
C1365       C  0.31729883  0.98187140  0.65430663    -0.11100
C1366       C  0.33037781  0.99096716  0.66178622     0.06000
C1367       C  0.34374586  0.98214899  0.66901288    -0.09900
C1368       C  0.34422663  0.96465262  0.66838712    -0.11500
C1369       C  0.33136924  0.95560331  0.66044490    -0.01300
C1370       C  0.31783166  0.96442155  0.65358553    -0.10400
C1371       C  0.33030621  0.00956428  0.66138338     0.06000
H1372       H  0.35412130  0.98877266  0.67470663     0.08000
H1373       H  0.35489567  0.95831138  0.67373862     0.11400
H1374       H  0.30755752  0.95788373  0.64764290     0.11700
H1375       H  0.30662133  0.98824685  0.64897831     0.08000
C1376       C  0.32438541  0.01801271  0.64716056    -0.11100
C1377       C  0.32440707  0.03545551  0.64650280    -0.10400
C1378       C  0.33056639  0.04489809  0.65997313    -0.01300
C1379       C  0.33654528  0.03653062  0.67421778    -0.11500
C1380       C  0.33635630  0.01902091  0.67495914    -0.09900
H1381       H  0.32002831  0.01113222  0.63631526     0.08000
H1382       H  0.32000327  0.04150018  0.63523384     0.11700
H1383       H  0.34125554  0.04350739  0.68485245     0.11400
H1384       H  0.34081043  0.01290870  0.68617797     0.08000
C1385       C  0.54593926  0.17963390  0.72975759    -0.11100
C1386       C  0.55515573  0.18711342  0.71675077     0.06000
C1387       C  0.55181119  0.20391665  0.71258147    -0.09900
C1388       C  0.53940277  0.21290124  0.72097876    -0.11500
C1389       C  0.53023354  0.20540083  0.73394170    -0.01300
C1390       C  0.53368388  0.18871266  0.73832319    -0.10400
C1391       C  0.56807028  0.17746274  0.70740827     0.06000
H1392       H  0.55890716  0.21024723  0.70292686     0.08000
H1393       H  0.53713718  0.22579898  0.71744282     0.11400
H1394       H  0.52676084  0.18258108  0.74824120     0.11700
H1395       H  0.54796225  0.16666740  0.73315319     0.08000
C1396       C  0.57798661  0.16531819  0.71545737    -0.11100
C1397       C  0.59025942  0.15650646  0.70656907    -0.10400
C1398       C  0.59305621  0.15989787  0.68956722    -0.01300
C1399       C  0.58308886  0.17187731  0.68150284    -0.11500
C1400       C  0.57064651  0.18042636  0.69025833    -0.09900
H1401       H  0.57652732  0.16284624  0.72869248     0.08000
H1402       H  0.59785664  0.14738236  0.71309111     0.11700
H1403       H  0.58475417  0.17451056  0.66831745     0.11400
H1404       H  0.56295775  0.18928397  0.68349725     0.08000
C1405       C  0.64485500  0.98079316  0.66369619    -0.11100
C1406       C  0.65684961  0.98934642  0.65401510     0.06000
C1407       C  0.66846769  0.97982653  0.64480973    -0.09900
C1408       C  0.66805461  0.96229534  0.64521376    -0.11500
C1409       C  0.65605267  0.95374569  0.65489210    -0.01300
C1410       C  0.64449619  0.96326567  0.66417145    -0.10400
C1411       C  0.65715376  0.00806990  0.65348238     0.06000
H1412       H  0.67807473  0.98590489  0.63742738     0.08000
H1413       H  0.67724898  0.95552541  0.63794485     0.11400
H1414       H  0.63500957  0.95725634  0.67173259     0.11700
H1415       H  0.63549491  0.98762740  0.67072511     0.08000
C1416       C  0.66150309  0.01665883  0.63871382    -0.11100
C1417       C  0.66142883  0.03420248  0.63817132    -0.10400
C1418       C  0.65683298  0.04362012  0.65232349    -0.01300
C1419       C  0.65265617  0.03507379  0.66711559    -0.11500
C1420       C  0.65289859  0.01755803  0.66771663    -0.09900
H1421       H  0.66459954  0.00984284  0.62741305     0.08000
H1422       H  0.66457061  0.04034323  0.62651543     0.11700
H1423       H  0.64930417  0.04190877  0.67832934     0.11400
H1424       H  0.64986458  0.01146552  0.67942900     0.08000
C1425       C  0.81028066  0.25945911  0.43512660    -0.11100
C1426       C  0.80578713  0.27598577  0.43100868     0.06000
C1427       C  0.79217003  0.28340351  0.43932574    -0.09900
C1428       C  0.78321204  0.27450445  0.45140866    -0.11500
C1429       C  0.78772439  0.25801236  0.45555815    -0.01300
C1430       C  0.80137569  0.25058331  0.44731473    -0.10400
C1431       C  0.81523252  0.28548781  0.41810669     0.06000
H1432       H  0.78856180  0.29620046  0.43666774     0.08000
H1433       H  0.77283954  0.28063421  0.45763319     0.11400
H1434       H  0.80510804  0.23786677  0.45019124     0.11700
H1435       H  0.82055636  0.25330218  0.42877851     0.08000
C1436       C  0.83272059  0.28408389  0.41691808    -0.11100
C1437       C  0.84158205  0.29307488  0.40480338    -0.10400
C1438       C  0.83316553  0.30371559  0.39362108    -0.01300
C1439       C  0.81568109  0.30515582  0.39485243    -0.11500
C1440       C  0.80682277  0.29612426  0.40692067    -0.09900
H1441       H  0.83960669  0.27622090  0.42552705     0.08000
H1442       H  0.85504859  0.29179468  0.40437400     0.11700
H1443       H  0.80873544  0.31306249  0.38635627     0.11400
H1444       H  0.79333010  0.29728578  0.40731712     0.08000
C1445       C  0.78878030  0.28221318  0.54789441    -0.11100
C1446       C  0.80418846  0.27619988  0.55382221     0.06000
C1447       C  0.81090528  0.26151469  0.54684688    -0.09900
C1448       C  0.80237485  0.25296648  0.53424097    -0.11500
C1449       C  0.78695341  0.25893938  0.52831727    -0.01300
C1450       C  0.78025268  0.27368108  0.53523752    -0.10400
C1451       C  0.81326022  0.28516832  0.56725695     0.06000
H1452       H  0.82265629  0.25648746  0.55132455     0.08000
H1453       H  0.80784455  0.24162080  0.52919649     0.11400
H1454       H  0.76839698  0.27860338  0.53092174     0.11700
H1455       H  0.78341357  0.29361486  0.55292550     0.08000
C1456       C  0.83067928  0.28729846  0.56630494    -0.11100
C1457       C  0.83928118  0.29567222  0.57899283    -0.10400
C1458       C  0.83063310  0.30213686  0.59288410    -0.01300
C1459       C  0.81320661  0.29994717  0.59385871    -0.11500
C1460       C  0.80460742  0.29155014  0.58117112    -0.09900
H1461       H  0.83763228  0.28270139  0.55560524     0.08000
H1462       H  0.85266121  0.29731057  0.57772852     0.11700
H1463       H  0.80618639  0.30457770  0.60448365     0.11400
H1464       H  0.79121186  0.28985165  0.58234851     0.08000
C1465       C  0.71131252  0.20627085  0.54778427    -0.11100
C1466       C  0.71710409  0.19091962  0.55411875     0.06000
C1467       C  0.73227894  0.18439708  0.54804400    -0.09900
C1468       C  0.74131925  0.19289332  0.53570973    -0.11500
C1469       C  0.73537558  0.20809778  0.52916145    -0.01300
C1470       C  0.72033505  0.21475680  0.53542370    -0.10400
C1471       C  0.70709530  0.18147337  0.56661440     0.06000
H1472       H  0.73718424  0.17271538  0.55286057     0.08000
H1473       H  0.75291354  0.18747903  0.53122991     0.11400
H1474       H  0.71543161  0.22646328  0.53066522     0.11700
H1475       H  0.69958103  0.21152633  0.55208796     0.08000
C1476       C  0.69896246  0.18979955  0.57982704    -0.11100
C1477       C  0.68927060  0.18083697  0.59134327    -0.10400
C1478       C  0.68757366  0.16335682  0.58992089    -0.01300
C1479       C  0.69571990  0.15506344  0.57671798    -0.11500
C1480       C  0.70534469  0.16401459  0.56519370    -0.09900
H1481       H  0.70024323  0.20322213  0.58136146     0.08000
H1482       H  0.68332457  0.18759002  0.60148193     0.11700
H1483       H  0.69449513  0.14165401  0.57511578     0.11400
H1484       H  0.71119247  0.15728336  0.55497315     0.08000
C1485       C  0.71557959  0.20530378  0.43367838    -0.11100
C1486       C  0.71738167  0.18782640  0.43238524     0.06000
C1487       C  0.72844753  0.17959284  0.44329740    -0.09900
C1488       C  0.73757044  0.18866226  0.45514717    -0.11500
C1489       C  0.73563597  0.20609651  0.45646651    -0.01300
C1490       C  0.72452515  0.21432551  0.44566741    -0.10400
C1491       C  0.70786375  0.17829507  0.41958457     0.06000
H1492       H  0.72991966  0.16611914  0.44280738     0.08000
H1493       H  0.74594416  0.18200018  0.46345589     0.11400
H1494       H  0.72291934  0.22778204  0.44633930     0.11700
H1495       H  0.70741356  0.21207126  0.42525937     0.08000
C1496       C  0.69129557  0.18271698  0.41569275    -0.11100
C1497       C  0.68251933  0.17413191  0.40325995    -0.10400
C1498       C  0.69004693  0.16081924  0.39457265    -0.01300
C1499       C  0.70649534  0.15619172  0.39862580    -0.11500
C1500       C  0.71534336  0.16489032  0.41094725    -0.09900
H1501       H  0.68505087  0.19275313  0.42234425     0.08000
H1502       H  0.66976337  0.17781121  0.40060294     0.11700
H1503       H  0.71267517  0.14608455  0.39202754     0.11400
H1504       H  0.72816813  0.16133436  0.41345630     0.08000
C1505       C  0.57364580  0.81349463  0.29602931    -0.11100
C1506       C  0.56843052  0.81910221  0.28017961     0.06000
C1507       C  0.57592856  0.83359050  0.27349717    -0.09900
C1508       C  0.58821144  0.84227733  0.28246280    -0.11500
C1509       C  0.59343111  0.83659969  0.29825468    -0.01300
C1510       C  0.58605659  0.82207817  0.30490235    -0.10400
C1511       C  0.55524005  0.80987886  0.27070962     0.06000
H1512       H  0.57248512  0.83811972  0.26121017     0.08000
H1513       H  0.59379451  0.85329964  0.27688565     0.11400
H1514       H  0.58964174  0.81748631  0.31712325     0.11700
H1515       H  0.56795105  0.80259725  0.30173898     0.08000
C1516       C  0.55419762  0.79228594  0.27150339    -0.11100
C1517       C  0.54168098  0.78363161  0.26284700    -0.10400
C1518       C  0.53011004  0.79232656  0.25293067    -0.01300
C1519       C  0.53117934  0.80986498  0.25196086    -0.11500
C1520       C  0.54351364  0.81856016  0.26085305    -0.09900
H1521       H  0.56318455  0.78513847  0.27867466     0.08000
H1522       H  0.54121965  0.77009549  0.26368576     0.11700
H1523       H  0.52228504  0.81689084  0.24453993     0.11400
H1524       H  0.54370076  0.83210277  0.26017838     0.08000
C1525       C  0.67390054  0.98071560  0.33119890    -0.11100
C1526       C  0.65969084  0.99013390  0.32696054     0.06000
C1527       C  0.64473437  0.98171956  0.32310732    -0.09900
C1528       C  0.64394693  0.96424127  0.32369457    -0.11500
C1529       C  0.65808486  0.95482542  0.32819410    -0.01300
C1530       C  0.67310447  0.96323205  0.33182412    -0.10400
C1531       C  0.66027007  0.00869135  0.32704777     0.06000
H1532       H  0.63353066  0.98868555  0.32003678     0.08000
H1533       H  0.63213869  0.95814946  0.32103108     0.11400
H1534       H  0.68426093  0.95630469  0.33511396     0.11700
H1535       H  0.68564059  0.98689112  0.33401448     0.08000
C1536       C  0.66793268  0.01731287  0.34031928    -0.11100
C1537       C  0.66767654  0.03481100  0.34089997    -0.10400
C1538       C  0.65974412  0.04404777  0.32821999    -0.01300
C1539       C  0.65245563  0.03541019  0.31473441    -0.11500
C1540       C  0.65269456  0.01791575  0.31417227    -0.09900
H1541       H  0.67369177  0.01050101  0.35050743     0.08000
H1542       H  0.67326930  0.04103170  0.35155340     0.11700
H1543       H  0.64647434  0.04214184  0.30463737     0.11400
H1544       H  0.64691175  0.01157504  0.30367272     0.08000
C1545       C  0.40537719  0.28979402  0.18115846    -0.11100
C1546       C  0.41922631  0.28304558  0.17264192     0.06000
C1547       C  0.42035959  0.28518362  0.15521144    -0.09900
C1548       C  0.40796676  0.29391229  0.14651197    -0.11500
C1549       C  0.39426953  0.30083349  0.15508492    -0.01300
C1550       C  0.39307637  0.29865400  0.17247994    -0.10400
C1551       C  0.43246685  0.27388480  0.18191309     0.06000
H1552       H  0.43099733  0.28037005  0.14831710     0.08000
H1553       H  0.40932171  0.29557114  0.13313922     0.11400
H1554       H  0.38253955  0.30366273  0.17939009     0.11700
H1555       H  0.40396725  0.28810090  0.19452456     0.08000
C1556       C  0.43781731  0.27948756  0.19771352    -0.11100
C1557       C  0.45030374  0.27088849  0.20640813    -0.10400
C1558       C  0.45771356  0.25648152  0.19950812    -0.01300
C1559       C  0.45237114  0.25088074  0.18371651    -0.11500
C1560       C  0.43989697  0.25948547  0.17502045    -0.09900
H1561       H  0.43251535  0.29066899  0.20326913     0.08000
H1562       H  0.45415303  0.27554681  0.21854183     0.11700
H1563       H  0.45780889  0.23981374  0.17806276     0.11400
H1564       H  0.43590551  0.25471606  0.16297995     0.08000
C1565       C  0.54766908  0.28224012  0.19584860    -0.11100
C1566       C  0.55599662  0.27489835  0.18217086     0.06000
C1567       C  0.55146310  0.25860371  0.17723146    -0.09900
C1568       C  0.53893794  0.24985818  0.18577061    -0.11500
C1569       C  0.53073516  0.25714651  0.19953000    -0.01300
C1570       C  0.53522365  0.27344627  0.20446192    -0.10400
C1571       C  0.56931952  0.28421356  0.17308818     0.06000
H1572       H  0.55777714  0.25248174  0.16691102     0.08000
H1573       H  0.53581757  0.23729352  0.18169826     0.11400
H1574       H  0.52905604  0.27946290  0.21493665     0.11700
H1575       H  0.55062798  0.29488024  0.19979443     0.08000
C1576       C  0.57082931  0.28294925  0.15561026    -0.11100
C1577       C  0.58316531  0.29193604  0.14705278    -0.10400
C1578       C  0.59427426  0.30248011  0.15574839    -0.01300
C1579       C  0.59288126  0.30356507  0.17326160    -0.11500
C1580       C  0.58057885  0.29453784  0.18181365    -0.09900
H1581       H  0.56224880  0.27526308  0.14846666     0.08000
H1582       H  0.58379235  0.29068940  0.13359874     0.11700
H1583       H  0.60121672  0.31141299  0.18047278     0.11400
H1584       H  0.57997971  0.29555654  0.19531244     0.08000
C1585       C  0.54841004  0.20284274  0.27600267    -0.11100
C1586       C  0.55395484  0.18695299  0.27082909     0.06000
C1587       C  0.54771500  0.18024988  0.25579554    -0.09900
C1588       C  0.53613184  0.18922410  0.24621014    -0.11500
C1589       C  0.53050169  0.20506235  0.25149503    -0.01300
C1590       C  0.53683985  0.21178206  0.26646152    -0.10400
C1591       C  0.56625716  0.17752282  0.28109667     0.06000
H1592       H  0.55191519  0.16813614  0.25135991     0.08000
H1593       H  0.53150968  0.18370478  0.23472520     0.11400
H1594       H  0.53274660  0.22392441  0.27092168     0.11700
H1595       H  0.55280644  0.20827310  0.28761592     0.08000
C1596       C  0.57966625  0.18593664  0.28876288    -0.11100
C1597       C  0.59122910  0.17720145  0.29849997    -0.10400
C1598       C  0.58975697  0.15980158  0.30070856    -0.01300
C1599       C  0.57633484  0.15134924  0.29310316    -0.11500
C1600       C  0.56467801  0.16012406  0.28342458    -0.09900
H1601       H  0.58139782  0.19927972  0.28700470     0.08000
H1602       H  0.60154237  0.18406655  0.30397062     0.11700
H1603       H  0.57476049  0.13797197  0.29472484     0.11400
H1604       H  0.55433099  0.15332813  0.27790902     0.08000
C1605       C  0.25307920  0.18204156  0.43739983    -0.11100
C1606       C  0.26763370  0.18917159  0.43051929     0.06000
C1607       C  0.27323118  0.20468951  0.43663452    -0.09900
C1608       C  0.26458984  0.21279625  0.44950985    -0.11500
C1609       C  0.25010090  0.20561327  0.45649355    -0.01300
C1610       C  0.24437588  0.19019159  0.45022439    -0.10400
C1611       C  0.27714224  0.18025977  0.41727165     0.06000
H1612       H  0.28449013  0.21040172  0.43168673     0.08000
H1613       H  0.26931170  0.22469340  0.45402218     0.11400
H1614       H  0.23321303  0.18437805  0.45526740     0.11700
H1615       H  0.24836349  0.17018416  0.43277785     0.08000
C1616       C  0.27992796  0.16294051  0.41851703    -0.11100
C1617       C  0.28885408  0.15444179  0.40611497    -0.10400
C1618       C  0.29522017  0.16305742  0.39215678    -0.01300
C1619       C  0.29256906  0.18043153  0.39096795    -0.11500
C1620       C  0.28361373  0.18894655  0.40340086    -0.09900
H1621       H  0.27537591  0.15598088  0.42922472     0.08000
H1622       H  0.29090036  0.14112816  0.40760685     0.11700
H1623       H  0.29718564  0.18742977  0.38032675     0.11400
H1624       H  0.28153236  0.20228438  0.40204640     0.08000
C1625       C  0.40839978  0.18669711  0.28833459    -0.11100
C1626       C  0.41958726  0.17783707  0.27803724     0.06000
C1627       C  0.41776656  0.16036737  0.27666490    -0.09900
C1628       C  0.40510646  0.15197407  0.28542848    -0.11500
C1629       C  0.39392233  0.16084003  0.29578403    -0.01300
C1630       C  0.39575582  0.17832913  0.29708158    -0.10400
C1631       C  0.43303868  0.18684724  0.26877350     0.06000
H1632       H  0.42628585  0.15313034  0.26898702     0.08000
H1633       H  0.40418060  0.13852870  0.28405570     0.11400
H1634       H  0.38745229  0.18568219  0.30483856     0.11700
H1635       H  0.40926708  0.20019145  0.28947612     0.08000
C1636       C  0.43722890  0.18231373  0.25227886    -0.11100
C1637       C  0.44963804  0.19104924  0.24349955    -0.10400
C1638       C  0.45809336  0.20456226  0.25099007    -0.01300
C1639       C  0.45398747  0.20902283  0.26750565    -0.11500
C1640       C  0.44165542  0.20024436  0.27630247    -0.09900
H1641       H  0.43069574  0.17220155  0.24603295     0.08000
H1642       H  0.45246419  0.18734257  0.23076752     0.11700
H1643       H  0.46036975  0.21927068  0.27369328     0.11400
H1644       H  0.43895605  0.20387832  0.28907976     0.08000
C1645       C  0.25708216  0.81639599  0.44185816    -0.11100
C1646       C  0.26995870  0.80844815  0.43283617     0.06000
C1647       C  0.27377009  0.79164843  0.43656306    -0.09900
C1648       C  0.26502945  0.78308872  0.44907843    -0.11500
C1649       C  0.25213840  0.79104924  0.45800548    -0.01300
C1650       C  0.24819969  0.80776435  0.45420270    -0.10400
C1651       C  0.27932433  0.81763934  0.41960198     0.06000
H1652       H  0.28337212  0.78501306  0.42967746     0.08000
H1653       H  0.26827482  0.77017116  0.45166030     0.11400
H1654       H  0.23842070  0.81428408  0.46096450     0.11700
H1655       H  0.25400203  0.82940397  0.43958794     0.08000
C1656       C  0.27117167  0.82952788  0.40949591    -0.11100
C1657       C  0.27996461  0.83830724  0.39720285    -0.10400
C1658       C  0.29701211  0.83516741  0.39450922    -0.01300
C1659       C  0.30519307  0.82321528  0.40442518    -0.11500
C1660       C  0.29648163  0.81465064  0.41695139    -0.09900
H1661       H  0.25791517  0.83191268  0.41090280     0.08000
H1662       H  0.27333405  0.84731946  0.38956620     0.11700
H1663       H  0.31840150  0.82071887  0.40271101     0.11400
H1664       H  0.30326445  0.80585504  0.42469466     0.08000
C1665       C  0.44139975  0.79712698  0.27924364    -0.11100
C1666       C  0.43397477  0.81153576  0.27246397     0.06000
C1667       C  0.43885687  0.81700868  0.25649645    -0.09900
C1668       C  0.45080037  0.80810605  0.24737512    -0.11500
C1669       C  0.45807049  0.79356436  0.25406200    -0.01300
C1670       C  0.45332280  0.78821313  0.27012460    -0.10400
C1671       C  0.42077549  0.82051717  0.28179216     0.06000
H1672       H  0.43316482  0.82796479  0.25090714     0.08000
H1673       H  0.45420262  0.81252113  0.23502000     0.11400
H1674       H  0.45880404  0.77712387  0.27566287     0.11700
H1675       H  0.43800772  0.79277631  0.29162611     0.08000
C1676       C  0.40819689  0.81149063  0.29010576    -0.11100
C1677       C  0.39544224  0.81987606  0.29854429    -0.10400
C1678       C  0.39499252  0.83746377  0.29881764    -0.01300
C1679       C  0.40761537  0.84651154  0.29055902    -0.11500
C1680       C  0.42041363  0.83810578  0.28213554    -0.09900
H1681       H  0.40802682  0.79792328  0.28979384     0.08000
H1682       H  0.38579206  0.81253601  0.30459478     0.11700
H1683       H  0.40773525  0.86007000  0.29073676     0.11400
H1684       H  0.43009833  0.84534783  0.27599364     0.08000
C1685       C  0.32145207  0.98012757  0.34610353    -0.11100
C1686       C  0.33108650  0.98919206  0.33448438     0.06000
C1687       C  0.34050348  0.98029752  0.32256814    -0.09900
C1688       C  0.34047014  0.96281621  0.32238303    -0.11500
C1689       C  0.33094935  0.95371873  0.33406157    -0.01300
C1690       C  0.32136606  0.96260072  0.34588264    -0.10400
C1691       C  0.33151011  0.00782669  0.33481970     0.06000
H1692       H  0.34779570  0.98685146  0.31320602     0.08000
H1693       H  0.34786603  0.95651867  0.31295218     0.11400
H1694       H  0.31393953  0.95609062  0.35514241     0.11700
H1695       H  0.31421934  0.98656333  0.35559742     0.08000
C1696       C  0.31705894  0.01717006  0.33858111    -0.11100
C1697       C  0.31757598  0.03469923  0.33878875    -0.10400
C1698       C  0.33249388  0.04323936  0.33504716    -0.01300
C1699       C  0.34690218  0.03392792  0.33126367    -0.11500
C1700       C  0.34645235  0.01644564  0.33127304    -0.09900
H1701       H  0.30528349  0.01095318  0.34112392     0.08000
H1702       H  0.30623745  0.04156457  0.34161558     0.11700
H1703       H  0.35865249  0.04014070  0.32860754     0.11400
H1704       H  0.35790810  0.00967977  0.32870326     0.08000
C1705       C  0.71306402  0.79839252  0.43909942    -0.11100
C1706       C  0.72019150  0.81288033  0.43208832     0.06000
C1707       C  0.73572481  0.81852454  0.43806563    -0.09900
C1708       C  0.74406265  0.80970714  0.45064130    -0.11500
C1709       C  0.73701810  0.79508208  0.45749089    -0.01300
C1710       C  0.72138694  0.78958047  0.45165279    -0.10400
C1711       C  0.71143677  0.82191847  0.41848468     0.06000
H1712       H  0.74157195  0.82957173  0.43279273     0.08000
H1713       H  0.75611568  0.81424776  0.45485673     0.11400
H1714       H  0.71557630  0.77843543  0.45675780     0.11700
H1715       H  0.70096835  0.79391957  0.43493360     0.08000
C1716       C  0.70355584  0.81292085  0.40560198    -0.11100
C1717       C  0.69470188  0.82128039  0.39311251    -0.10400
C1718       C  0.69359533  0.83883870  0.39316951    -0.01300
C1719       C  0.70179544  0.84789286  0.40583765    -0.11500
C1720       C  0.71061929  0.83950726  0.41839572    -0.09900
H1721       H  0.70427859  0.79937671  0.40515756     0.08000
H1722       H  0.68879634  0.81395624  0.38336412     0.11700
H1723       H  0.70107797  0.86142863  0.40629364     0.11400
H1724       H  0.71645899  0.84675349  0.42825413     0.08000
C1725       C  0.79019376  0.71832844  0.54839858    -0.11100
C1726       C  0.80492872  0.72503461  0.55528374     0.06000
C1727       C  0.81107804  0.74031841  0.54911820    -0.09900
C1728       C  0.80263940  0.74875306  0.53638467    -0.11500
C1729       C  0.78786385  0.74208632  0.52954913    -0.01300
C1730       C  0.78174164  0.72676923  0.53566547    -0.10400
C1731       C  0.81381145  0.71611933  0.56887990     0.06000
H1732       H  0.82227814  0.74589761  0.55432561     0.08000
H1733       H  0.80764070  0.76057385  0.53199070     0.11400
H1734       H  0.77040218  0.72130296  0.53064037     0.11700
H1735       H  0.78528615  0.70645092  0.55274207     0.08000
C1736       C  0.80475519  0.70833687  0.58178077    -0.11100
C1737       C  0.81304781  0.69965826  0.59443416    -0.10400
C1738       C  0.83059496  0.69860736  0.59451272    -0.01300
C1739       C  0.83968277  0.70657023  0.58171878    -0.11500
C1740       C  0.83137115  0.71522338  0.56902055    -0.09900
H1741       H  0.79123273  0.70909450  0.58218581     0.08000
H1742       H  0.80565664  0.69392253  0.60422921     0.11700
H1743       H  0.85319750  0.70589522  0.58131127     0.11400
H1744       H  0.83867773  0.72093700  0.55912932     0.08000
C1745       C  0.73414893  0.81484285  0.55120436    -0.11100
C1746       C  0.71869358  0.80867297  0.55696178     0.06000
C1747       C  0.71219139  0.79400485  0.54964680    -0.09900
C1748       C  0.72087881  0.78581243  0.53682245    -0.11500
C1749       C  0.73621819  0.79215221  0.53096009    -0.01300
C1750       C  0.74276099  0.80672910  0.53833154    -0.10400
C1751       C  0.70939437  0.81762040  0.57042568     0.06000
H1752       H  0.70023336  0.78900047  0.55360701     0.08000
H1753       H  0.71550542  0.77458786  0.53141585     0.11400
H1754       H  0.75461225  0.81186809  0.53420693     0.11700
H1755       H  0.73972546  0.82588380  0.55676562     0.08000
C1756       C  0.70023326  0.80870354  0.58253193    -0.11100
C1757       C  0.69158311  0.81717422  0.59518600    -0.10400
C1758       C  0.69195748  0.83476891  0.59611336    -0.01300
C1759       C  0.70110584  0.84367737  0.58401195    -0.11500
C1760       C  0.70965003  0.83522204  0.57130279    -0.09900
H1761       H  0.69996523  0.79514155  0.58242338     0.08000
H1762       H  0.68481974  0.80986061  0.60436079     0.11700
H1763       H  0.70153098  0.85722254  0.58416150     0.11400
H1764       H  0.71626872  0.84253579  0.56200591     0.08000
C1765       C  0.83399386  0.71710766  0.41797451    -0.11100
C1766       C  0.81643050  0.71814248  0.41764261     0.06000
C1767       C  0.80774891  0.71044439  0.40444713    -0.09900
C1768       C  0.81635379  0.70166620  0.39203188    -0.11500
C1769       C  0.83388298  0.70036315  0.39246242    -0.01300
C1770       C  0.84263838  0.70831135  0.40550139    -0.10400
C1771       C  0.80707970  0.72701606  0.43105485     0.06000
H1772       H  0.79425130  0.71131249  0.40364304     0.08000
H1773       H  0.80919593  0.69599876  0.38203853     0.11400
H1774       H  0.85612846  0.70748249  0.40628243     0.11700
H1775       H  0.84102224  0.72278832  0.42807345     0.08000
C1776       C  0.79213644  0.72022734  0.43742086    -0.11100
C1777       C  0.78314284  0.72859945  0.44986977    -0.10400
C1778       C  0.78889259  0.74395580  0.45628107    -0.01300
C1779       C  0.80386067  0.75074374  0.44995304    -0.11500
C1780       C  0.81286894  0.74235117  0.43748504    -0.09900
H1781       H  0.78747616  0.70831318  0.43289716     0.08000
H1782       H  0.77170630  0.72298495  0.45451499     0.11700
H1783       H  0.80860623  0.76257740  0.45459760     0.11400
H1784       H  0.82423392  0.74798645  0.43269411     0.08000
C1785       C  0.43859958  0.71731475  0.79166100    -0.11100
C1786       C  0.43056795  0.72490247  0.80535268     0.06000
C1787       C  0.43578806  0.74087833  0.81057656    -0.09900
C1788       C  0.44870510  0.74915371  0.80221206    -0.11500
C1789       C  0.45663782  0.74163734  0.78842265    -0.01300
C1790       C  0.45150354  0.72560434  0.78326734    -0.10400
C1791       C  0.41674094  0.71622185  0.81413349     0.06000
H1792       H  0.42968443  0.74710490  0.82096539     0.08000
H1793       H  0.45233269  0.76153136  0.80643351     0.11400
H1794       H  0.45745140  0.71945069  0.77274462     0.11700
H1795       H  0.43498993  0.70490147  0.78752781     0.08000
C1796       C  0.40444425  0.70754507  0.80505227    -0.11100
C1797       C  0.39140770  0.69936054  0.81334724    -0.10400
C1798       C  0.39040125  0.69967399  0.83090577    -0.01300
C1799       C  0.40268765  0.70842783  0.83996349    -0.11500
C1800       C  0.41571413  0.71660365  0.83166678    -0.09900
H1801       H  0.40478655  0.70726820  0.79150700     0.08000
H1802       H  0.38207407  0.69292112  0.80595163     0.11700
H1803       H  0.40245608  0.70878868  0.85349068     0.11400
H1804       H  0.42514931  0.72300866  0.83899355     0.08000
C1805       C  0.57092872  0.83540575  0.71143866    -0.11100
C1806       C  0.57145104  0.81791267  0.71330602     0.06000
C1807       C  0.58524157  0.80907807  0.70686366    -0.09900
C1808       C  0.59808520  0.81754424  0.69848738    -0.11500
C1809       C  0.59742475  0.83502472  0.69642655    -0.01300
C1810       C  0.58378163  0.84386476  0.70313940    -0.10400
C1811       C  0.55754663  0.80896105  0.72179280     0.06000
H1812       H  0.58613440  0.79562484  0.70837004     0.08000
H1813       H  0.60853177  0.81038543  0.69366347     0.11400
H1814       H  0.58275940  0.85729330  0.70161672     0.11700
H1815       H  0.56036508  0.84253967  0.71605796     0.08000
C1816       C  0.55006758  0.81577274  0.73618713    -0.11100
C1817       C  0.53687896  0.80747778  0.74411264    -0.10400
C1818       C  0.53084493  0.79217630  0.73782195    -0.01300
C1819       C  0.53826218  0.78537763  0.72337983    -0.11500
C1820       C  0.55149451  0.79367553  0.71546150    -0.09900
H1821       H  0.55457268  0.82742861  0.74147449     0.08000
H1822       H  0.53147944  0.81302822  0.75524629     0.11700
H1823       H  0.53389759  0.77360747  0.71822562     0.11400
H1824       H  0.55685315  0.78823624  0.70425408     0.08000
C1825       C  0.54915798  0.71799892  0.79175180    -0.11100
C1826       C  0.55600850  0.72507445  0.80634081     0.06000
C1827       C  0.54943291  0.74025915  0.81234376    -0.09900
C1828       C  0.53652855  0.74834339  0.80379323    -0.11500
C1829       C  0.52991044  0.74144694  0.78902252    -0.01300
C1830       C  0.53625434  0.72610000  0.78317738    -0.10400
C1831       C  0.57014489  0.71680520  0.81510595     0.06000
H1832       H  0.55453852  0.74611914  0.82344683     0.08000
H1833       H  0.53191599  0.76014720  0.80863927     0.11400
H1834       H  0.53133796  0.72039463  0.77190819     0.11700
H1835       H  0.55375339  0.70615909  0.78698068     0.08000
C1836       C  0.57079091  0.71640786  0.83267279    -0.11100
C1837       C  0.58408429  0.70857821  0.84088749    -0.10400
C1838       C  0.59702315  0.70091153  0.83172853    -0.01300
C1839       C  0.59646237  0.70148830  0.81415816    -0.11500
C1840       C  0.58319021  0.70934898  0.80594931    -0.09900
H1841       H  0.56084657  0.72188208  0.84008872     0.08000
H1842       H  0.58398887  0.70827177  0.85441724     0.11700
H1843       H  0.60631123  0.69594917  0.80668516     0.11400
H1844       H  0.58323656  0.70974793  0.79240611     0.08000
C1845       C  0.44071976  0.81799785  0.73268936    -0.11100
C1846       C  0.43087272  0.80986859  0.72054452     0.06000
C1847       C  0.43398294  0.79280928  0.71721723    -0.09900
C1848       C  0.44681395  0.78427119  0.72546614    -0.11500
C1849       C  0.45663077  0.79246376  0.73751003    -0.01300
C1850       C  0.45333130  0.80935832  0.74116398    -0.10400
C1851       C  0.41772585  0.81920080  0.71112137     0.06000
H1852       H  0.42643248  0.78594028  0.70831356     0.08000
H1853       H  0.44890191  0.77117921  0.72256629     0.11400
H1854       H  0.46071427  0.81601598  0.75038296     0.11700
H1855       H  0.43898175  0.83115902  0.73543978     0.08000
C1856       C  0.40886724  0.83252458  0.71858421    -0.11100
C1857       C  0.39690334  0.84150168  0.70950043    -0.10400
C1858       C  0.39325589  0.83713715  0.69287876    -0.01300
C1859       C  0.40190943  0.82376850  0.68546103    -0.11500
C1860       C  0.41410058  0.81502865  0.69439302    -0.09900
H1861       H  0.41100269  0.83594458  0.73151160     0.08000
H1862       H  0.39028920  0.85165726  0.71559188     0.11700
H1863       H  0.39953886  0.82028276  0.67258505     0.11400
H1864       H  0.42089661  0.80519737  0.68800286     0.08000
C1865       C  0.73463451  0.55718709  0.80930153    -0.11100
C1866       C  0.71810304  0.56156812  0.80523067     0.06000
C1867       C  0.70988271  0.55269008  0.79245650    -0.09900
C1868       C  0.71807895  0.53987415  0.78378674    -0.11500
C1869       C  0.73466801  0.53561647  0.78773002    -0.01300
C1870       C  0.74282198  0.54433611  0.80066080    -0.10400
C1871       C  0.70951030  0.57545700  0.81414664     0.06000
H1872       H  0.69705366  0.55559738  0.78922777     0.08000
H1873       H  0.71140826  0.53329332  0.77399130     0.11400
H1874       H  0.75563062  0.54140302  0.80394803     0.11700
H1875       H  0.74135465  0.56391989  0.81895812     0.08000
C1876       C  0.71112324  0.57731771  0.83154539    -0.11100
C1877       C  0.70295780  0.59035048  0.83992751    -0.10400
C1878       C  0.69299664  0.60188346  0.83111258    -0.01300
C1879       C  0.69151493  0.60005505  0.81366079    -0.11500
C1880       C  0.69964639  0.58699333  0.80529749    -0.09900
H1881       H  0.71850048  0.56852054  0.83873207     0.08000
H1882       H  0.70440746  0.59122306  0.85334657     0.11700
H1883       H  0.68410499  0.60868799  0.80635514     0.11400
H1884       H  0.69837219  0.58603707  0.79184092     0.08000
C1885       C  0.80269787  0.41107951  0.69910859    -0.11100
C1886       C  0.81111662  0.42401508  0.70753593     0.06000
C1887       C  0.82867747  0.42457197  0.70686294    -0.09900
C1888       C  0.83763404  0.41244671  0.69797335    -0.11500
C1889       C  0.82924038  0.39946108  0.68955491    -0.01300
C1890       C  0.81165105  0.39892965  0.69023522    -0.10400
C1891       C  0.80166809  0.43691039  0.71701185     0.06000
H1892       H  0.83549488  0.43454420  0.71302979     0.08000
H1893       H  0.85113032  0.41340640  0.69759611     0.11400
H1894       H  0.80473121  0.38904726  0.68408140     0.11700
H1895       H  0.78917924  0.41021073  0.69958478     0.08000
C1896       C  0.78702437  0.44401729  0.71036482    -0.11100
C1897       C  0.77840447  0.45647998  0.71915954    -0.10400
C1898       C  0.78424279  0.46206634  0.73478278    -0.01300
C1899       C  0.79876028  0.45478237  0.74150744    -0.11500
C1900       C  0.80736784  0.44235461  0.73271725    -0.09900
H1901       H  0.78242025  0.44016622  0.69822105     0.08000
H1902       H  0.76724840  0.46183492  0.71364680     0.11700
H1903       H  0.80350781  0.45869098  0.75357649     0.11400
H1904       H  0.81845876  0.43691007  0.73827395     0.08000
C1905       C  0.73004554  0.44523103  0.81184097    -0.11100
C1906       C  0.71791489  0.43546845  0.80358732     0.06000
C1907       C  0.71439357  0.43892478  0.78669288    -0.09900
C1908       C  0.72254224  0.45196816  0.77838307    -0.11500
C1909       C  0.73463119  0.46167644  0.78665831    -0.01300
C1910       C  0.73841052  0.45809406  0.80342370    -0.10400
C1911       C  0.70883729  0.42189072  0.81257558     0.06000
H1912       H  0.70545610  0.43144924  0.77977913     0.08000
H1913       H  0.71953535  0.45429590  0.76537972     0.11400
H1914       H  0.74765311  0.46540820  0.81012427     0.11700
H1915       H  0.73290098  0.44316724  0.82491059     0.08000
C1916       C  0.71682822  0.41245172  0.82510680    -0.11100
C1917       C  0.70817218  0.39991868  0.83371354    -0.10400
C1918       C  0.69146895  0.39631979  0.82974119    -0.01300
C1919       C  0.68348966  0.40556860  0.81714968    -0.11500
C1920       C  0.69201651  0.41832016  0.80877720    -0.09900
H1921       H  0.72984683  0.41457617  0.82815667     0.08000
H1922       H  0.71464653  0.39283014  0.84326443     0.11700
H1923       H  0.67052411  0.40320786  0.81401203     0.11400
H1924       H  0.68529405  0.42555052  0.79951949     0.08000
C1925       C  0.78475756  0.55791921  0.71414633    -0.11100
C1926       C  0.80188542  0.56090850  0.71701946     0.06000
C1927       C  0.81029073  0.55077053  0.72871882    -0.09900
C1928       C  0.80174948  0.53830459  0.73755514    -0.11500
C1929       C  0.78466207  0.53542345  0.73469237    -0.01300
C1930       C  0.77629664  0.54523844  0.72277139    -0.10400
C1931       C  0.81087476  0.57466681  0.70808793     0.06000
H1932       H  0.82354269  0.55233831  0.73100642     0.08000
H1933       H  0.80858037  0.53080495  0.74652869     0.11400
H1934       H  0.76309600  0.54335432  0.72034977     0.11700
H1935       H  0.77773329  0.56559465  0.70549651     0.08000
C1936       C  0.80641316  0.57926379  0.69167500    -0.11100
C1937       C  0.81469261  0.59235683  0.68348449    -0.10400
C1938       C  0.82784876  0.60093566  0.69136766    -0.01300
C1939       C  0.83244406  0.59630568  0.70765090    -0.11500
C1940       C  0.82395896  0.58346360  0.71597583    -0.09900
H1941       H  0.79667135  0.57261715  0.68501204     0.08000
H1942       H  0.81101758  0.59552756  0.67084344     0.11700
H1943       H  0.84240128  0.60284636  0.71411239     0.11400
H1944       H  0.82752553  0.58065072  0.72872201     0.08000
loop_ 
_geom_bond_atom_site_label_1 
_geom_bond_atom_site_label_2 
_geom_bond_distance 
_geom_bond_site_symmetry_2 
_ccdc_geom_bond_type 
O1           Cu9   2.009       .  S
O1           C11   1.278       .  A
O2           Cu9   2.010       .  S
O2           C12   1.279       .  A
O3           Cu9   2.007       .  S
O3           C13   1.278       .  A
O4           Cu9   2.003       .  S
O4           C14   1.278       .  A
O5          Cu10   2.011       .  S
O5           C14   1.279       .  A
O6          Cu10   2.012       .  S
O6           C13   1.279       .  A
O7          Cu10   2.008       .  S
O7           C12   1.278       .  A
O8          Cu10   2.002       .  S
O8           C11   1.277       .  A
Cu9         Cu10   2.371       .  S
C11        C1909   1.476       .  S
C12        C1929   1.479       .  S
C13        C1869   1.481       .  S
C14        C1898   1.480       .  S
O15         Cu23   2.003       .  S
O15          C25   1.277       .  A
O16         Cu23   2.003       .  S
O16          C26   1.278       .  A
O17         Cu23   2.000       .  S
O17          C27   1.278       .  A
O18         Cu23   2.001       .  S
O18          C28   1.277       .  A
O19         Cu24   2.003       .  S
O19          C28   1.278       .  A
O20         Cu24   2.011       .  S
O20          C27   1.279       .  A
O21         Cu24   2.011       .  S
O21          C26   1.279       .  A
O22         Cu24   2.014       .  S
O22          C25   1.279       .  A
Cu23        Cu24   2.371       .  S
C25        C1849   1.479       .  S
C26        C1829   1.480       .  S
C27        C1818   1.479       .  S
C28        C1789   1.476       .  S
O29         Cu37   2.008       .  S
O29          C39   1.279       .  A
O30         Cu37   2.008       .  S
O30          C40   1.278       .  A
O31         Cu37   2.008       .  S
O31          C41   1.278       .  A
O32         Cu37   2.009       .  S
O32          C42   1.279       .  A
O33         Cu38   2.009       .  S
O33          C42   1.278       .  A
O34         Cu38   2.007       .  S
O34          C41   1.279       .  A
O35         Cu38   1.997       .  S
O35          C40   1.277       .  A
O36         Cu38   1.999       .  S
O36          C39   1.277       .  A
Cu37        Cu38   2.371       .  S
C39        C1709   1.478       .  S
C40        C1729   1.477       .  S
C41        C1749   1.481       .  S
C42        C1778   1.481       .  S
N43          N44   1.320       .  A
N43          C47   1.343       .  A
N43         Cu51   2.063       .  S
N44          C45   1.340       .  A
N44         Cu50   2.058       .  S
C45          C46   1.383       .  A
C45          H48   1.081       .  S
C46        C1678   1.475       .  S
C46          C47   1.385       .  A
C47          H49   1.082       .  S
Cu50         N53   2.059       .  S
Cu51         N61   2.064       .  S
Cu52         N54   2.072       .  S
Cu52         N60   2.072       .  S
N53          N54   1.321       .  A
N53          C57   1.343       .  A
N54          C55   1.344       .  A
C55          C56   1.385       .  A
C55          H58   1.082       .  S
C56        C1658   1.474       .  S
C56          C57   1.383       .  A
C57          H59   1.082       .  S
N60          N61   1.321       .  A
N60          C64   1.344       .  A
N61          C62   1.342       .  A
C62          C63   1.387       .  A
C62          H65   1.081       .  S
C63        C1689   1.485       .  S
C63          C64   1.388       .  A
C64          H66   1.081       .  S
N67          N68   1.321       .  A
N67          C71   1.346       .  A
N67         Cu75   2.077       .  S
N68          C69   1.344       .  A
N68         Cu74   2.077       .  S
C69          C70   1.390       .  A
C69          H72   1.081       .  S
C70        C1629   1.490       .  S
C70          C71   1.390       .  A
C71          H73   1.081       .  S
Cu74         N77   2.076       .  S
Cu75         N85   2.076       .  S
Cu76         N78   2.072       .  S
Cu76         N84   2.072       .  S
N77          N78   1.322       .  A
N77          C81   1.346       .  A
N78          C79   1.343       .  A
C79          C80   1.386       .  A
C79          H82   1.081       .  S
C80        C1618   1.483       .  S
C80          C81   1.387       .  A
C81          H83   1.081       .  S
N84          N85   1.322       .  A
N84          C88   1.346       .  A
N85          C86   1.344       .  A
C86          C87   1.386       .  A
C86          H89   1.082       .  S
C87        C1698   1.480       .  S
C87          C88   1.385       .  A
C88          H90   1.082       .  S
O91         Cu99   2.006       .  S
O91         C101   1.278       .  A
O92         Cu99   2.006       .  S
O92         C102   1.278       .  A
O93         Cu99   2.010       .  S
O93         C103   1.279       .  A
O94         Cu99   2.010       .  S
O94         C104   1.278       .  A
O95        Cu100   2.010       .  S
O95         C104   1.278       .  A
O96        Cu100   2.012       .  S
O96         C103   1.279       .  A
O97        Cu100   2.010       .  S
O97         C102   1.279       .  A
O98        Cu100   2.013       .  S
O98         C101   1.279       .  A
Cu99       Cu100   2.370       .  S
C101       C1589   1.482       .  S
C102       C1558   1.481       .  S
C103       C1638   1.483       .  S
C104       C1569   1.481       .  S
N105        N106   1.321       .  A
N105        C109   1.345       .  A
N105       Cu113   2.074       .  S
N106        C107   1.346       .  A
N106       Cu112   2.076       .  S
C107        C108   1.387       .  A
C107        H110   1.082       .  S
C108       C1509   1.483       .  S
C108        C109   1.386       .  A
C109        H111   1.082       .  S
Cu112       N115   2.075       .  S
Cu113       N123   2.073       .  S
Cu114       N116   2.070       .  S
Cu114       N122   2.070       .  S
N115        N116   1.322       .  A
N115        C119   1.344       .  A
N116        C117   1.345       .  A
C117        C118   1.385       .  A
C117        H120   1.082       .  S
C118       C1718   1.480       .  S
C118        C119   1.386       .  A
C119        H121   1.082       .  S
N122        N123   1.321       .  A
N122        C126   1.344       .  A
N123        C124   1.344       .  A
C124        C125   1.386       .  A
C124        H127   1.082       .  S
C125       C1529   1.480       .  S
C125        C126   1.385       .  A
C126        H128   1.082       .  S
N129        N130   1.321       .  A
N129        C133   1.344       .  A
N129       Cu137   2.068       .  S
N130        C131   1.343       .  A
N130       Cu136   2.069       .  S
C131        C132   1.385       .  A
C131        H134   1.082       .  S
C132       C1498   1.478       .  S
C132        C133   1.385       .  A
C133        H135   1.082       .  S
Cu136       N139   2.070       .  S
Cu137       N147   2.069       .  S
Cu138       N140   2.075       .  S
Cu138       N146   2.075       .  S
N139        N140   1.321       .  A
N139        C143   1.343       .  A
N140        C141   1.346       .  A
C141        C142   1.387       .  A
C141        H144   1.082       .  S
C142       C1598   1.482       .  S
C142        C143   1.386       .  A
C143        H145   1.082       .  S
N146        N147   1.322       .  A
N146        C150   1.343       .  A
N147        C148   1.344       .  A
C148        C149   1.386       .  A
C148        H151   1.081       .  S
C149       C1538   1.481       .  S
C149        C150   1.386       .  A
C150        H152   1.082       .  S
O153       Cu161   2.005       .  S
O153        C163   1.278       .  A
O154       Cu161   2.001       .  S
O154        C164   1.278       .  A
O155       Cu161   2.004       .  S
O155        C165   1.278       .  A
O156       Cu161   2.002       .  S
O156        C166   1.277       .  A
O157       Cu162   2.001       .  S
O157        C166   1.278       .  A
O158       Cu162   2.003       .  S
O158        C165   1.277       .  A
O159       Cu162   2.013       .  S
O159        C164   1.279       .  A
O160       Cu162   2.008       .  S
O160        C163   1.278       .  A
Cu161      Cu162   2.372       .  S
C163       C1469   1.480       .  S
C164       C1429   1.479       .  S
C165       C1489   1.474       .  S
C166       C1449   1.477       .  S
N167        N168   1.322       .  A
N167        C171   1.344       .  A
N167       Cu175   2.080       .  S
N168        C169   1.344       .  A
N168       Cu174   2.068       .  S
C169        C170   1.385       .  A
C169        H172   1.081       .  S
C170       C1809   1.482       .  S
C170        C171   1.387       .  A
C171        H173   1.081       .  S
Cu174       N177   2.068       .  S
Cu175       N185   2.081       .  S
Cu176       N178   2.074       .  S
Cu176       N184   2.075       .  S
N177        N178   1.321       .  A
N177        C181   1.344       .  A
N178        C179   1.344       .  A
C179        C180   1.388       .  A
C179        H182   1.081       .  S
C180       C1758   1.484       .  S
C180        C181   1.387       .  A
C181        H183   1.081       .  S
N184        N185   1.321       .  A
N184        C188   1.344       .  A
N185        C186   1.346       .  A
C186        C187   1.391       .  A
C186        H189   1.081       .  S
C187       C1409   1.492       .  S
C187        C188   1.389       .  A
C188        H190   1.081       .  S
N191        N192   1.322       .  A
N191        C195   1.347       .  A
N191       Cu199   2.080       .  S
N192        C193   1.342       .  A
N192       Cu198   2.065       .  S
C193        C194   1.382       .  A
C193        H196   1.082       .  S
C194       C1398   1.476       .  S
C194        C195   1.386       .  A
C195        H197   1.082       .  S
Cu198       N201   2.065       .  S
Cu199       N209   2.081       .  S
Cu200       N202   2.077       .  S
Cu200       N208   2.078       .  S
N201        N202   1.321       .  A
N201        C205   1.345       .  A
N202        C203   1.344       .  A
C203        C204   1.387       .  A
C203        H206   1.082       .  S
C204       C1478   1.482       .  S
C204        C205   1.386       .  A
C205        H207   1.082       .  S
N208        N209   1.322       .  A
N208        C212   1.346       .  A
N209        C210   1.345       .  A
C210        C211   1.388       .  A
C210        H213   1.082       .  S
C211       C1418   1.487       .  S
C211        C212   1.388       .  A
C212        H214   1.081       .  S
N215        N216   1.321       .  A
N215        C219   1.346       .  A
N215       Cu223   2.076       .  S
N216        C217   1.344       .  A
N216       Cu222   2.076       .  S
C217        C218   1.388       .  A
C217        H220   1.081       .  S
C218       C1349   1.487       .  S
C218        C219   1.389       .  A
C219        H221   1.081       .  S
Cu222       N225   2.076       .  S
Cu223       N233   2.076       .  S
Cu224       N226   2.065       .  S
Cu224       N232   2.065       .  S
N225        N226   1.321       .  A
N225        C229   1.344       .  A
N226        C227   1.345       .  A
C227        C228   1.385       .  A
C227        H230   1.082       .  S
C228       C1858   1.479       .  S
C228        C229   1.386       .  A
C229        H231   1.082       .  S
N232        N233   1.322       .  A
N232        C236   1.343       .  A
N233        C234   1.344       .  A
C234        C235   1.388       .  A
C234        H237   1.081       .  S
C235       C1369   1.481       .  S
C235        C236   1.385       .  A
C236        H238   1.082       .  S
N239        N240   1.320       .  A
N239        C243   1.344       .  A
N239       Cu247   2.063       .  S
N240        C241   1.342       .  A
N240       Cu246   2.064       .  S
C241        C242   1.385       .  A
C241        H244   1.081       .  S
C242       C1329   1.477       .  S
C242        C243   1.385       .  A
C243        H245   1.081       .  S
Cu246       N249   2.064       .  S
Cu247       N257   2.063       .  S
Cu248       N250   2.075       .  S
Cu248       N256   2.076       .  S
N249        N250   1.321       .  A
N249        C253   1.342       .  A
N250        C251   1.346       .  A
C251        C252   1.386       .  A
C251        H254   1.082       .  S
C252       C1309   1.477       .  S
C252        C253   1.383       .  A
C253        H255   1.082       .  S
N256        N257   1.322       .  A
N256        C260   1.343       .  A
N257        C258   1.344       .  A
C258        C259   1.383       .  A
C258        H261   1.082       .  S
C259       C1378   1.477       .  S
C259        C260   1.385       .  A
C260        H262   1.082       .  S
O263       Cu271   1.990       .  S
O263        C273   1.276       .  A
O264       Cu271   1.995       .  S
O264        C274   1.277       .  A
O265       Cu271   2.005       .  S
O265        C275   1.278       .  A
O266       Cu271   2.006       .  S
O266        C276   1.279       .  A
O267       Cu272   1.995       .  S
O267        C276   1.276       .  A
O268       Cu272   1.997       .  S
O268        C275   1.277       .  A
O269       Cu272   2.003       .  S
O269        C274   1.278       .  A
O270       Cu272   2.002       .  S
O270        C273   1.278       .  A
Cu271      Cu272   2.373       .  S
C273       C1278   1.472       .  S
C274       C1338   1.475       .  S
C275       C1289   1.476       .  S
C276       C1389   1.475       .  S
O277       Cu285   1.998       .  S
O277        C287   1.277       .  A
O278       Cu285   1.995       .  S
O278        C288   1.276       .  A
O279       Cu285   2.007       .  S
O279        C289   1.278       .  A
O280       Cu285   2.000       .  S
O280        C290   1.278       .  A
O281       Cu286   2.005       .  S
O281        C290   1.277       .  A
O282       Cu286   2.005       .  S
O282        C289   1.278       .  A
O283       Cu286   2.013       .  S
O283        C288   1.279       .  A
O284       Cu286   2.016       .  S
O284        C287   1.280       .  A
Cu285      Cu286   2.372       .  S
C287       C1609   1.480       .  S
C288       C1238   1.476       .  S
C289       C1318   1.478       .  S
C290       C1258   1.475       .  S
N291        N292   1.320       .  A
N291        C295   1.343       .  A
N291       Cu299   2.061       .  S
N292        C293   1.340       .  A
N292       Cu298   2.054       .  S
C293        C294   1.384       .  A
C293        H296   1.081       .  S
C294       C1269   1.476       .  S
C294        C295   1.386       .  A
C295        H297   1.081       .  S
Cu298       N301   2.054       .  S
Cu299       N309   2.062       .  S
Cu300       N302   2.072       .  S
Cu300       N308   2.072       .  S
N301        N302   1.321       .  A
N301        C305   1.342       .  A
N302        C303   1.344       .  A
C303        C304   1.385       .  A
C303        H306   1.082       .  S
C304       C1918   1.474       .  S
C304        C305   1.382       .  A
C305        H307   1.082       .  S
N308        N309   1.321       .  A
N308        C312   1.344       .  A
N309        C310   1.342       .  A
C310        C311   1.385       .  A
C310        H313   1.081       .  S
C311       C1209   1.480       .  S
C311        C312   1.387       .  A
C312        H314   1.081       .  S
N315        N316   1.319       .  A
N315        C319   1.343       .  A
N315       Cu323   2.064       .  S
N316        C317   1.343       .  A
N316       Cu322   2.068       .  S
C317        C318   1.389       .  A
C317        H320   1.081       .  S
C318       C1578   1.486       .  S
C318        C319   1.388       .  A
C319        H321   1.081       .  S
Cu322       N325   2.069       .  S
Cu323       N333   2.064       .  S
Cu324       N326   2.071       .  S
Cu324       N332   2.071       .  S
N325        N326   1.321       .  A
N325        C329   1.343       .  A
N326        C327   1.344       .  A
C327        C328   1.387       .  A
C327        H330   1.081       .  S
C328       C1198   1.483       .  S
C328        C329   1.387       .  A
C329        H331   1.081       .  S
N332        N333   1.321       .  A
N332        C336   1.344       .  A
N333        C334   1.342       .  A
C334        C335   1.384       .  A
C334        H337   1.082       .  S
C335       C1218   1.477       .  S
C335        C336   1.386       .  A
C336        H338   1.082       .  S
O339       Cu347   2.005       .  S
O339        C349   1.278       .  A
O340       Cu347   2.002       .  S
O340        C350   1.277       .  A
O341       Cu347   2.012       .  S
O341        C351   1.279       .  A
O342       Cu347   2.011       .  S
O342        C352   1.279       .  A
O343       Cu348   2.006       .  S
O343        C352   1.278       .  A
O344       Cu348   2.007       .  S
O344        C351   1.278       .  A
O345       Cu348   2.010       .  S
O345        C350   1.279       .  A
O346       Cu348   2.010       .  S
O346        C349   1.278       .  A
Cu347      Cu348   2.371       .  S
C349       C1189   1.480       .  S
C350       C1129   1.480       .  S
C351       C1178   1.479       .  S
C352       C1158   1.480       .  S
N353        N354   1.321       .  A
N353        C357   1.344       .  A
N353       Cu361   2.076       .  S
N354        C355   1.344       .  A
N354       Cu360   2.072       .  S
C355        C356   1.387       .  A
C355        H358   1.081       .  S
C356       C1838   1.484       .  S
C356        C357   1.387       .  A
C357        H359   1.081       .  S
Cu360       N363   2.072       .  S
Cu361       N371   2.077       .  S
Cu362       N364   2.079       .  S
Cu362       N370   2.080       .  S
N363        N364   1.321       .  A
N363        C367   1.344       .  A
N364        C365   1.344       .  A
C365        C366   1.389       .  A
C365        H368   1.081       .  S
C366       C1878   1.488       .  S
C366        C367   1.389       .  A
C367        H369   1.081       .  S
N370        N371   1.321       .  A
N370        C374   1.346       .  A
N371        C372   1.345       .  A
C372        C373   1.389       .  A
C372        H375   1.081       .  S
C373       C1109   1.490       .  S
C373        C374   1.390       .  A
C374        H376   1.081       .  S
N377        N378   1.321       .  A
N377        C381   1.345       .  A
N377       Cu385   2.078       .  S
N378        C379   1.344       .  A
N378       Cu384   2.073       .  S
C379        C380   1.388       .  A
C379        H382   1.081       .  S
C380       C1089   1.487       .  S
C380        C381   1.389       .  A
C381        H383   1.081       .  S
Cu384       N387   2.073       .  S
Cu385       N395   2.078       .  S
Cu386       N388   2.079       .  S
Cu386       N394   2.080       .  S
N387        N388   1.322       .  A
N387        C391   1.344       .  A
N388        C389   1.346       .  A
C389        C390   1.386       .  A
C389        H392   1.082       .  S
C390       C1169   1.479       .  S
C390        C391   1.385       .  A
C391        H393   1.082       .  S
N394        N395   1.322       .  A
N394        C398   1.346       .  A
N395        C396   1.346       .  A
C396        C397   1.386       .  A
C396        H399   1.082       .  S
C397       C1118   1.483       .  S
C397        C398   1.386       .  A
C398        H400   1.082       .  S
N401        N402   1.320       .  A
N401        C405   1.343       .  A
N401       Cu409   2.062       .  S
N402        C403   1.343       .  A
N402       Cu408   2.070       .  S
C403        C404   1.387       .  A
C403        H406   1.081       .  S
C404       C1798   1.481       .  S
C404        C405   1.386       .  A
C405        H407   1.081       .  S
Cu408       N411   2.070       .  S
Cu409       N419   2.062       .  S
Cu410       N412   2.077       .  S
Cu410       N418   2.077       .  S
N411        N412   1.322       .  A
N411        C415   1.344       .  A
N412        C413   1.346       .  A
C413        C414   1.385       .  A
C413        H416   1.082       .  S
C414       C1049   1.477       .  S
C414        C415   1.384       .  A
C415        H417   1.082       .  S
N418        N419   1.321       .  A
N418        C422   1.344       .  A
N419        C420   1.343       .  A
C420        C421   1.384       .  A
C420        H423   1.082       .  S
C421       C1069   1.480       .  S
C421        C422   1.388       .  A
C422        H424   1.081       .  S
N425        N426   1.320       .  A
N425        C429   1.345       .  A
N425       Cu433   2.071       .  S
N426        C427   1.343       .  A
N426       Cu432   2.071       .  S
C427        C428   1.389       .  A
C427        H430   1.081       .  S
C428       C1009   1.488       .  S
C428        C429   1.390       .  A
C429        H431   1.081       .  S
Cu432       N435   2.071       .  S
Cu433       N443   2.072       .  S
Cu434       N436   2.069       .  S
Cu434       N442   2.069       .  S
N435        N436   1.321       .  A
N435        C439   1.344       .  A
N436        C437   1.345       .  A
C437        C438   1.386       .  A
C437        H440   1.082       .  S
C438       C1029   1.480       .  S
C438        C439   1.386       .  A
C439        H441   1.082       .  S
N442        N443   1.322       .  A
N442        C446   1.345       .  A
N443        C444   1.343       .  A
C444        C445   1.384       .  A
C444        H447   1.082       .  S
C445       C1078   1.477       .  S
C445        C446   1.384       .  A
C446        H448   1.082       .  S
O449       Cu457   1.997       .  S
O449        C459   1.277       .  A
O450       Cu457   2.003       .  S
O450        C460   1.278       .  A
O451       Cu457   2.016       .  S
O451        C461   1.279       .  A
O452       Cu457   2.015       .  S
O452        C462   1.279       .  A
O453       Cu458   2.009       .  S
O453        C462   1.278       .  A
O454       Cu458   2.009       .  S
O454        C461   1.278       .  A
O455       Cu458   2.007       .  S
O455        C460   1.278       .  A
O456       Cu458   2.001       .  S
O456        C459   1.278       .  A
Cu457      Cu458   2.371       .  S
C459       C1669   1.474       .  S
C460       C1098   1.479       .  S
C461       C1518   1.478       .  S
C462       C1038   1.478       .  S
N463        N464   1.320       .  A
N463        C467   1.344       .  A
N463       Cu471   2.077       .  S
N464        C465   1.344       .  A
N464       Cu470   2.065       .  S
C465        C466   1.387       .  A
C465        H468   1.081       .  S
C466        C978   1.486       .  S
C466        C467   1.389       .  A
C467        H469   1.081       .  S
Cu470       N473   2.065       .  S
Cu471       N481   2.077       .  S
Cu472       N474   2.064       .  S
Cu472       N480   2.065       .  S
N473        N474   1.320       .  A
N473        C477   1.342       .  A
N474        C475   1.343       .  A
C475        C476   1.387       .  A
C475        H478   1.081       .  S
C476       C1298   1.481       .  S
C476        C477   1.387       .  A
C477        H479   1.081       .  S
N480        N481   1.321       .  A
N480        C484   1.343       .  A
N481        C482   1.344       .  A
C482        C483   1.388       .  A
C482        H485   1.082       .  S
C483        C989   1.484       .  S
C483        C484   1.386       .  A
C484        H486   1.081       .  S
N487        N488   1.321       .  A
N487        C491   1.346       .  A
N487       Cu495   2.081       .  S
N488        C489   1.344       .  A
N488       Cu494   2.065       .  S
C489        C490   1.383       .  A
C489        H492   1.082       .  S
C490        C949   1.477       .  S
C490        C491   1.386       .  A
C491        H493   1.082       .  S
Cu494       N497   2.065       .  S
Cu495       N505   2.081       .  S
Cu496       N498   2.075       .  S
Cu496       N504   2.075       .  S
N497        N498   1.321       .  A
N497        C501   1.343       .  A
N498        C499   1.345       .  A
C499        C500   1.386       .  A
C499        H502   1.082       .  S
C500       C1549   1.478       .  S
C500        C501   1.384       .  A
C501        H503   1.082       .  S
N504        N505   1.322       .  A
N504        C508   1.345       .  A
N505        C506   1.345       .  A
C506        C507   1.389       .  A
C506        H509   1.081       .  S
C507        C998   1.486       .  S
C507        C508   1.387       .  A
C508        H510   1.082       .  S
N511        N512   1.320       .  A
N511        C515   1.343       .  A
N511       Cu519   2.066       .  S
N512        C513   1.343       .  A
N512       Cu518   2.064       .  S
C513        C514   1.385       .  A
C513        H516   1.081       .  S
C514       C1458   1.479       .  S
C514        C515   1.386       .  A
C515        H517   1.081       .  S
Cu518       N521   2.065       .  S
Cu519       N529   2.067       .  S
Cu520       N522   2.076       .  S
Cu520       N528   2.076       .  S
N521        N522   1.321       .  A
N521        C525   1.343       .  A
N522        C523   1.345       .  A
C523        C524   1.389       .  A
C523        H526   1.081       .  S
C524       C1889   1.484       .  S
C524        C525   1.386       .  A
C525        H527   1.081       .  S
N528        N529   1.322       .  A
N528        C532   1.345       .  A
N529        C530   1.343       .  A
C530        C531   1.385       .  A
C530        H533   1.082       .  S
C531        C929   1.479       .  S
C531        C532   1.386       .  A
C532        H534   1.081       .  S
N535        N536   1.320       .  A
N535        C539   1.343       .  A
N535       Cu543   2.071       .  S
N536        C537   1.343       .  A
N536       Cu542   2.063       .  S
C537        C538   1.387       .  A
C537        H540   1.081       .  S
C538       C1229   1.484       .  S
C538        C539   1.388       .  A
C539        H541   1.081       .  S
Cu542       N545   2.063       .  S
Cu543       N553   2.071       .  S
Cu544       N546   2.060       .  S
Cu544       N552   2.060       .  S
N545        N546   1.320       .  A
N545        C549   1.343       .  A
N546        C547   1.341       .  A
C547        C548   1.385       .  A
C547        H550   1.081       .  S
C548        C918   1.479       .  S
C548        C549   1.387       .  A
C549        H551   1.081       .  S
N552        N553   1.320       .  A
N552        C556   1.343       .  A
N553        C554   1.343       .  A
C554        C555   1.388       .  A
C554        H557   1.081       .  S
C555        C938   1.483       .  S
C555        C556   1.386       .  A
C556        H558   1.081       .  S
O559       Cu567   2.000       .  S
O559        C569   1.278       .  A
O560       Cu567   2.008       .  S
O560        C570   1.278       .  A
O561       Cu567   1.994       .  S
O561        C571   1.276       .  A
O562       Cu567   1.998       .  S
O562        C572   1.277       .  A
O563       Cu568   2.015       .  S
O563        C572   1.279       .  A
O564       Cu568   2.008       .  S
O564        C571   1.279       .  A
O565       Cu568   2.012       .  S
O565        C570   1.279       .  A
O566       Cu568   2.017       .  S
O566        C569   1.279       .  A
Cu567      Cu568   2.372       .  S
C569        C889   1.481       .  S
C570        C969   1.481       .  S
C571        C909   1.474       .  S
C572       C1058   1.479       .  S
N573        N574   1.321       .  A
N573        C577   1.345       .  A
N573       Cu581   2.076       .  S
N574        C575   1.345       .  A
N574       Cu580   2.069       .  S
C575        C576   1.385       .  A
C575        H578   1.082       .  S
C576       C1938   1.479       .  S
C576        C577   1.386       .  A
C577        H579   1.082       .  S
Cu580       N583   2.068       .  S
Cu581       N591   2.076       .  S
Cu582       N584   2.066       .  S
Cu582       N590   2.067       .  S
N583        N584   1.321       .  A
N583        C587   1.342       .  A
N584        C585   1.344       .  A
C585        C586   1.386       .  A
C585        H588   1.082       .  S
C586       C1738   1.480       .  S
C586        C587   1.386       .  A
C587        H589   1.081       .  S
N590        N591   1.321       .  A
N590        C594   1.343       .  A
N591        C592   1.345       .  A
C592        C593   1.387       .  A
C592        H595   1.081       .  S
C593        C869   1.481       .  S
C593        C594   1.385       .  A
C594        H596   1.082       .  S
N597        N598   1.322       .  A
N597        C601   1.347       .  A
N597       Cu605   2.084       .  S
N598        C599   1.344       .  A
N598       Cu604   2.073       .  S
C599        C600   1.384       .  A
C599        H602   1.082       .  S
C600        C849   1.482       .  S
C600        C601   1.387       .  A
C601        H603   1.082       .  S
Cu604       N607   2.072       .  S
Cu605       N615   2.084       .  S
Cu606       N608   2.070       .  S
Cu606       N614   2.071       .  S
N607        N608   1.320       .  A
N607        C611   1.344       .  A
N608        C609   1.345       .  A
C609        C610   1.388       .  A
C609        H612   1.081       .  S
C610        C898   1.487       .  S
C610        C611   1.389       .  A
C611        H613   1.081       .  S
N614        N615   1.322       .  A
N614        C618   1.344       .  A
N615        C616   1.346       .  A
C616        C617   1.388       .  A
C616        H619   1.081       .  S
C617        C878   1.483       .  S
C617        C618   1.385       .  A
C618        H620   1.082       .  S
O621       Cu629   2.006       .  S
O621        C631   1.278       .  A
O622       Cu629   2.008       .  S
O622        C632   1.278       .  A
O623       Cu629   2.015       .  S
O623        C633   1.279       .  A
O624       Cu629   2.014       .  S
O624        C634   1.279       .  A
O625       Cu630   2.011       .  S
O625        C634   1.278       .  A
O626       Cu630   2.010       .  S
O626        C633   1.278       .  A
O627       Cu630   2.017       .  S
O627        C632   1.279       .  A
O628       Cu630   2.010       .  S
O628        C631   1.278       .  A
Cu629      Cu630   2.370       .  S
C631       C1649   1.479       .  S
C632        C858   1.482       .  S
C633       C1358   1.483       .  S
C634        C829   1.484       .  S
N635        N636   1.321       .  A
N635        C639   1.346       .  A
N635       Cu643   2.075       .  S
N636        C637   1.342       .  A
N636       Cu642   2.071       .  S
C637        C638   1.386       .  A
C637        H640   1.081       .  S
C638       C1769   1.483       .  S
C638        C639   1.388       .  A
C639        H641   1.081       .  S
Cu642       N645   2.070       .  S
Cu643       N653   2.075       .  S
Cu644       N646   2.068       .  S
Cu644       N652   2.069       .  S
N645        N646   1.320       .  A
N645        C649   1.345       .  A
N646        C647   1.343       .  A
C647        C648   1.387       .  A
C647        H650   1.081       .  S
C648       C1138   1.484       .  S
C648        C649   1.388       .  A
C649        H651   1.081       .  S
N652        N653   1.321       .  A
N652        C656   1.344       .  A
N653        C654   1.344       .  A
C654        C655   1.387       .  A
C654        H657   1.081       .  S
C655        C809   1.483       .  S
C655        C656   1.386       .  A
C656        H658   1.081       .  S
N659        N660   1.321       .  A
N659        C663   1.345       .  A
N659       Cu667   2.072       .  S
N660        C661   1.345       .  A
N660       Cu666   2.072       .  S
C661        C662   1.386       .  A
C661        H664   1.082       .  S
C662        C789   1.480       .  S
C662        C663   1.386       .  A
C663        H665   1.082       .  S
Cu666       N669   2.072       .  S
Cu667       N677   2.073       .  S
Cu668       N670   2.080       .  S
Cu668       N676   2.080       .  S
N669        N670   1.321       .  A
N669        C673   1.343       .  A
N670        C671   1.347       .  A
C671        C672   1.390       .  A
C671        H674   1.082       .  S
C672        C838   1.486       .  S
C672        C673   1.386       .  A
C673        H675   1.081       .  S
N676        N677   1.322       .  A
N676        C680   1.344       .  A
N677        C678   1.345       .  A
C678        C679   1.387       .  A
C678        H681   1.081       .  S
C679        C818   1.486       .  S
C679        C680   1.388       .  A
C680        H682   1.081       .  S
N683        N684   1.322       .  A
N683        C687   1.347       .  A
N683       Cu691   2.078       .  S
N684        C685   1.343       .  A
N684       Cu690   2.066       .  S
C685        C686   1.383       .  A
C685        H688   1.082       .  S
C686       C1149   1.478       .  S
C686        C687   1.387       .  A
C687        H689   1.082       .  S
Cu690       N693   2.066       .  S
Cu691       N701   2.078       .  S
Cu692       N694   2.068       .  S
Cu692       N700   2.068       .  S
N693        N694   1.320       .  A
N693        C697   1.343       .  A
N694        C695   1.344       .  A
C695        C696   1.387       .  A
C695        H698   1.081       .  S
C696       C1438   1.482       .  S
C696        C697   1.387       .  A
C697        H699   1.081       .  S
N700        N701   1.322       .  A
N700        C704   1.344       .  A
N701        C702   1.344       .  A
C702        C703   1.388       .  A
C702        H705   1.081       .  S
C703        C769   1.484       .  S
C703        C704   1.386       .  A
C704        H706   1.081       .  S
N707        N708   1.321       .  A
N707        C711   1.345       .  A
N707       Cu715   2.077       .  S
N708        C709   1.343       .  A
N708       Cu714   2.064       .  S
C709        C710   1.385       .  A
C709        H712   1.081       .  S
C710        C749   1.481       .  S
C710        C711   1.387       .  A
C711        H713   1.082       .  S
Cu714       N717   2.064       .  S
Cu715       N725   2.077       .  S
Cu716       N718   2.062       .  S
Cu716       N724   2.063       .  S
N717        N718   1.321       .  A
N717        C721   1.342       .  A
N718        C719   1.344       .  A
C719        C720   1.383       .  A
C719        H722   1.082       .  S
C720       C1249   1.473       .  S
C720        C721   1.384       .  A
C721        H723   1.082       .  S
N724        N725   1.322       .  A
N724        C728   1.343       .  A
N725        C726   1.345       .  A
C726        C727   1.386       .  A
C726        H729   1.082       .  S
C727        C778   1.476       .  S
C727        C728   1.382       .  A
C728        H730   1.082       .  S
O731       Cu739   2.010       .  S
O731        C741   1.279       .  A
O732       Cu739   2.013       .  S
O732        C742   1.278       .  A
O733       Cu739   2.012       .  S
O733        C743   1.278       .  A
O734       Cu739   2.010       .  S
O734        C744   1.279       .  A
O735       Cu740   2.008       .  S
O735        C744   1.278       .  A
O736       Cu740   2.008       .  S
O736        C743   1.278       .  A
O737       Cu740   2.011       .  S
O737        C742   1.279       .  A
O738       Cu740   2.009       .  S
O738        C741   1.278       .  A
Cu739      Cu740   2.370       .  S
C741        C958   1.480       .  S
C742        C798   1.482       .  S
C743       C1018   1.481       .  S
C744        C758   1.481       .  S
C745        C746   1.406       .  A
C745        C750   1.397       .  A
C745        H755   1.083       .  S
C746        C751   1.485       .  S
C746        C747   1.405       .  A
C747        C748   1.398       .  A
C747        H752   1.083       .  S
C748        C749   1.406       .  A
C748        H753   1.082       .  S
C749        C750   1.404       .  A
C750        H754   1.082       .  S
C751        C756   1.405       .  A
C751        C760   1.406       .  A
C756        C757   1.397       .  A
C756        H761   1.083       .  S
C757        C758   1.405       .  A
C757        H762   1.083       .  S
C758        C759   1.406       .  A
C759        C760   1.398       .  A
C759        H763   1.083       .  S
C760        H764   1.083       .  S
C765        C766   1.407       .  A
C765        C770   1.399       .  A
C765        H775   1.081       .  S
C766        C771   1.487   1_655  S
C766        C767   1.405       .  A
C767        C768   1.395       .  A
C767        H772   1.084       .  S
C768        C769   1.405       .  A
C768        H773   1.080       .  S
C769        C770   1.406       .  A
C770        H774   1.083       .  S
C771        C776   1.406       .  A
C771        C780   1.408       .  A
C776        C777   1.397       .  A
C776        H781   1.083       .  S
C777        C778   1.405       .  A
C777        H782   1.082       .  S
C778        C779   1.401       .  A
C779        C780   1.396       .  A
C779        H783   1.084       .  S
C780        H784   1.081       .  S
C785        C786   1.408       .  A
C785        C790   1.399       .  A
C785        H795   1.082       .  S
C786        C791   1.492       .  S
C786        C787   1.408       .  A
C787        C788   1.398       .  A
C787        H792   1.082       .  S
C788        C789   1.404       .  A
C788        H793   1.083       .  S
C789        C790   1.404       .  A
C790        H794   1.083       .  S
C791        C796   1.408       .  A
C791        C800   1.407       .  A
C796        C797   1.400       .  A
C796        H801   1.083       .  S
C797        C798   1.406       .  A
C797        H802   1.083       .  S
C798        C799   1.404       .  A
C799        C800   1.397       .  A
C799        H803   1.083       .  S
C800        H804   1.082       .  S
C805        C806   1.405       .  A
C805        C810   1.396       .  A
C805        H815   1.083       .  S
C806        C811   1.485   1_655  S
C806        C807   1.405       .  A
C807        C808   1.399       .  A
C807        H812   1.083       .  S
C808        C809   1.407       .  A
C808        H813   1.082       .  S
C809        C810   1.405       .  A
C810        H814   1.082       .  S
C811        C816   1.405       .  A
C811        C820   1.405       .  A
C816        C817   1.399       .  A
C816        H821   1.083       .  S
C817        C818   1.407       .  A
C817        H822   1.082       .  S
C818        C819   1.406       .  A
C819        C820   1.396       .  A
C819        H823   1.081       .  S
C820        H824   1.083       .  S
C825        C826   1.405       .  A
C825        C830   1.399       .  A
C825        H835   1.083       .  S
C826        C831   1.488       .  S
C826        C827   1.406       .  A
C827        C828   1.399       .  A
C827        H832   1.083       .  S
C828        C829   1.406       .  A
C828        H833   1.083       .  S
C829        C830   1.406       .  A
C830        H834   1.083       .  S
C831        C836   1.407       .  A
C831        C840   1.405       .  A
C836        C837   1.400       .  A
C836        H841   1.083       .  S
C837        C838   1.406       .  A
C837        H842   1.082       .  S
C838        C839   1.407       .  A
C839        C840   1.398       .  A
C839        H843   1.081       .  S
C840        H844   1.083       .  S
C845        C846   1.409       .  A
C845        C850   1.400       .  A
C845        H855   1.082       .  S
C846        C851   1.495       .  S
C846        C847   1.408       .  A
C847        C848   1.398       .  A
C847        H852   1.082       .  S
C848        C849   1.404       .  A
C848        H853   1.083       .  S
C849        C850   1.403       .  A
C850        H854   1.083       .  S
C851        C856   1.408       .  A
C851        C860   1.409       .  A
C856        C857   1.398       .  A
C856        H861   1.082       .  S
C857        C858   1.405       .  A
C857        H862   1.083       .  S
C858        C859   1.404       .  A
C859        C860   1.400       .  A
C859        H863   1.083       .  S
C860        H864   1.082       .  S
C865        C866   1.407       .  A
C865        C870   1.398       .  A
C865        H875   1.082       .  S
C866        C871   1.488   1_655  S
C866        C867   1.405       .  A
C867        C868   1.397       .  A
C867        H872   1.083       .  S
C868        C869   1.405       .  A
C868        H873   1.082       .  S
C869        C870   1.404       .  A
C870        H874   1.083       .  S
C871        C876   1.405       .  A
C871        C880   1.407       .  A
C876        C877   1.398       .  A
C876        H881   1.083       .  S
C877        C878   1.406       .  A
C877        H882   1.082       .  S
C878        C879   1.404       .  A
C879        C880   1.398       .  A
C879        H883   1.083       .  S
C880        H884   1.082       .  S
C885        C886   1.407       .  A
C885        C890   1.401       .  A
C885        H895   1.083       .  S
C886        C891   1.488       .  S
C886        C887   1.405       .  A
C887        C888   1.395       .  A
C887        H892   1.083       .  S
C888        C889   1.405       .  A
C888        H893   1.083       .  S
C889        C890   1.406       .  A
C890        H894   1.083       .  S
C891        C896   1.405       .  A
C891        C900   1.405       .  A
C896        C897   1.400       .  A
C896        H901   1.083       .  S
C897        C898   1.407       .  A
C897        H902   1.081       .  S
C898        C899   1.406       .  A
C899        C900   1.396       .  A
C899        H903   1.081       .  S
C900        H904   1.083       .  S
C905        C906   1.405       .  A
C905        C910   1.395       .  A
C905        H915   1.083       .  S
C906        C911   1.480       .  S
C906        C907   1.404       .  A
C907        C908   1.395       .  A
C907        H912   1.083       .  S
C908        C909   1.405       .  A
C908        H913   1.083       .  S
C909        C910   1.403       .  A
C910        H914   1.083       .  S
C911        C916   1.404       .  A
C911        C920   1.403       .  A
C916        C917   1.396       .  A
C916        H921   1.083       .  S
C917        C918   1.406       .  A
C917        H922   1.081       .  S
C918        C919   1.405       .  A
C919        C920   1.394       .  A
C919        H923   1.081       .  S
C920        H924   1.083       .  S
C925        C926   1.407       .  A
C925        C930   1.399       .  A
C925        H935   1.082       .  S
C926        C931   1.485   1_655  S
C926        C927   1.405       .  A
C927        C928   1.395       .  A
C927        H932   1.083       .  S
C928        C929   1.404       .  A
C928        H933   1.082       .  S
C929        C930   1.405       .  A
C930        H934   1.083       .  S
C931        C936   1.405       .  A
C931        C940   1.405       .  A
C936        C937   1.398       .  A
C936        H941   1.083       .  S
C937        C938   1.407       .  A
C937        H942   1.081       .  S
C938        C939   1.405       .  A
C939        C940   1.395       .  A
C939        H943   1.082       .  S
C940        H944   1.082       .  S
C945        C946   1.408       .  A
C945        C950   1.397       .  A
C945        H955   1.082       .  S
C946        C951   1.492       .  S
C946        C947   1.408       .  A
C947        C948   1.399       .  A
C947        H952   1.082       .  S
C948        C949   1.404       .  A
C948        H953   1.083       .  S
C949        C950   1.402       .  A
C950        H954   1.083       .  S
C951        C956   1.407       .  A
C951        C960   1.408       .  A
C956        C957   1.396       .  A
C956        H961   1.082       .  S
C957        C958   1.403       .  A
C957        H962   1.083       .  S
C958        C959   1.405       .  A
C959        C960   1.400       .  A
C959        H963   1.083       .  S
C960        H964   1.082       .  S
C965        C966   1.405       .  A
C965        C970   1.398       .  A
C965        H975   1.083       .  S
C966        C971   1.484       .  S
C966        C967   1.405       .  A
C967        C968   1.398       .  A
C967        H972   1.083       .  S
C968        C969   1.406       .  A
C968        H973   1.083       .  S
C969        C970   1.406       .  A
C970        H974   1.083       .  S
C971        C976   1.404       .  A
C971        C980   1.404       .  A
C976        C977   1.397       .  A
C976        H981   1.083       .  S
C977        C978   1.406       .  A
C977        H982   1.081       .  S
C978        C979   1.408       .  A
C979        C980   1.398       .  A
C979        H983   1.081       .  S
C980        H984   1.083       .  S
C985        C986   1.406       .  A
C985        C990   1.398       .  A
C985        H995   1.082       .  S
C986        C991   1.489   1_556  S
C986        C987   1.406       .  A
C987        C988   1.398       .  A
C987        H992   1.083       .  S
C988        C989   1.405       .  A
C988        H993   1.081       .  S
C989        C990   1.406       .  A
C990        H994   1.082       .  S
C991        C996   1.406       .  A
C991       C1000   1.406       .  A
C996        C997   1.400       .  A
C996       H1001   1.084       .  S
C997        C998   1.407       .  A
C997       H1002   1.081       .  S
C998        C999   1.405       .  A
C999       C1000   1.397       .  A
C999       H1003   1.082       .  S
C1000      H1004   1.082       .  S
C1005      C1006   1.406       .  A
C1005      C1010   1.400       .  A
C1005      H1015   1.083       .  S
C1006      C1011   1.487       .  S
C1006      C1007   1.404       .  A
C1007      C1008   1.396       .  A
C1007      H1012   1.083       .  S
C1008      C1009   1.406       .  A
C1008      H1013   1.080       .  S
C1009      C1010   1.408       .  A
C1010      H1014   1.081       .  S
C1011      C1016   1.406       .  A
C1011      C1020   1.406       .  A
C1016      C1017   1.400       .  A
C1016      H1021   1.083       .  S
C1017      C1018   1.406       .  A
C1017      H1022   1.083       .  S
C1018      C1019   1.405       .  A
C1019      C1020   1.396       .  A
C1019      H1023   1.083       .  S
C1020      H1024   1.083       .  S
C1025      C1026   1.407       .  A
C1025      C1030   1.397       .  A
C1025      H1035   1.082       .  S
C1026      C1031   1.491       .  S
C1026      C1027   1.408       .  A
C1027      C1028   1.398       .  A
C1027      H1032   1.082       .  S
C1028      C1029   1.404       .  A
C1028      H1033   1.083       .  S
C1029      C1030   1.404       .  A
C1030      H1034   1.082       .  S
C1031      C1036   1.408       .  A
C1031      C1040   1.407       .  A
C1036      C1037   1.399       .  A
C1036      H1041   1.082       .  S
C1037      C1038   1.403       .  A
C1037      H1042   1.083       .  S
C1038      C1039   1.404       .  A
C1039      C1040   1.398       .  A
C1039      H1043   1.083       .  S
C1040      H1044   1.083       .  S
C1045      C1046   1.408       .  A
C1045      C1050   1.397       .  A
C1045      H1055   1.082       .  S
C1046      C1051   1.490       .  S
C1046      C1047   1.408       .  A
C1047      C1048   1.399       .  A
C1047      H1052   1.082       .  S
C1048      C1049   1.403       .  A
C1048      H1053   1.083       .  S
C1049      C1050   1.403       .  A
C1050      H1054   1.083       .  S
C1051      C1056   1.406       .  A
C1051      C1060   1.409       .  A
C1056      C1057   1.395       .  A
C1056      H1061   1.082       .  S
C1057      C1058   1.404       .  A
C1057      H1062   1.083       .  S
C1058      C1059   1.405       .  A
C1059      C1060   1.400       .  A
C1059      H1063   1.083       .  S
C1060      H1064   1.083       .  S
C1065      C1066   1.405       .  A
C1065      C1070   1.398       .  A
C1065      H1075   1.083       .  S
C1066      C1071   1.484   1_556  S
C1066      C1067   1.405       .  A
C1067      C1068   1.395       .  A
C1067      H1072   1.082       .  S
C1068      C1069   1.404       .  A
C1068      H1073   1.082       .  S
C1069      C1070   1.406       .  A
C1070      H1074   1.082       .  S
C1071      C1076   1.407       .  A
C1071      C1080   1.405       .  A
C1076      C1077   1.398       .  A
C1076      H1081   1.082       .  S
C1077      C1078   1.404       .  A
C1077      H1082   1.083       .  S
C1078      C1079   1.403       .  A
C1079      C1080   1.394       .  A
C1079      H1083   1.082       .  S
C1080      H1084   1.083       .  S
C1085      C1086   1.403       .  A
C1085      C1090   1.397       .  A
C1085      H1095   1.083       .  S
C1086      C1091   1.482       .  S
C1086      C1087   1.404       .  A
C1087      C1088   1.398       .  A
C1087      H1092   1.083       .  S
C1088      C1089   1.407       .  A
C1088      H1093   1.081       .  S
C1089      C1090   1.407       .  A
C1090      H1094   1.081       .  S
C1091      C1096   1.405       .  A
C1091      C1100   1.404       .  A
C1096      C1097   1.397       .  A
C1096      H1101   1.083       .  S
C1097      C1098   1.406       .  A
C1097      H1102   1.083       .  S
C1098      C1099   1.405       .  A
C1099      C1100   1.397       .  A
C1099      H1103   1.083       .  S
C1100      H1104   1.083       .  S
C1105      C1106   1.407       .  A
C1105      C1110   1.400       .  A
C1105      H1115   1.083       .  S
C1106      C1111   1.493   1_556  S
C1106      C1107   1.407       .  A
C1107      C1108   1.399       .  A
C1107      H1112   1.082       .  S
C1108      C1109   1.406       .  A
C1108      H1113   1.082       .  S
C1109      C1110   1.407       .  A
C1110      H1114   1.081       .  S
C1111      C1116   1.408       .  A
C1111      C1120   1.408       .  A
C1116      C1117   1.401       .  A
C1116      H1121   1.082       .  S
C1117      C1118   1.405       .  A
C1117      H1122   1.083       .  S
C1118      C1119   1.404       .  A
C1119      C1120   1.399       .  A
C1119      H1123   1.082       .  S
C1120      H1124   1.082       .  S
C1125      C1126   1.405       .  A
C1125      C1130   1.396       .  A
C1125      H1135   1.083       .  S
C1126      C1131   1.485       .  S
C1126      C1127   1.406       .  A
C1127      C1128   1.398       .  A
C1127      H1132   1.083       .  S
C1128      C1129   1.405       .  A
C1128      H1133   1.083       .  S
C1129      C1130   1.406       .  A
C1130      H1134   1.083       .  S
C1131      C1136   1.406       .  A
C1131      C1140   1.404       .  A
C1136      C1137   1.398       .  A
C1136      H1141   1.083       .  S
C1137      C1138   1.406       .  A
C1137      H1142   1.082       .  S
C1138      C1139   1.406       .  A
C1139      C1140   1.396       .  A
C1139      H1143   1.081       .  S
C1140      H1144   1.083       .  S
C1145      C1146   1.409       .  A
C1145      C1150   1.399       .  A
C1145      H1155   1.082       .  S
C1146      C1151   1.492       .  S
C1146      C1147   1.408       .  A
C1147      C1148   1.397       .  A
C1147      H1152   1.082       .  S
C1148      C1149   1.403       .  A
C1148      H1153   1.083       .  S
C1149      C1150   1.402       .  A
C1150      H1154   1.083       .  S
C1151      C1156   1.407       .  A
C1151      C1160   1.409       .  A
C1156      C1157   1.397       .  A
C1156      H1161   1.082       .  S
C1157      C1158   1.405       .  A
C1157      H1162   1.083       .  S
C1158      C1159   1.404       .  A
C1159      C1160   1.398       .  A
C1159      H1163   1.083       .  S
C1160      H1164   1.082       .  S
C1165      C1166   1.407       .  A
C1165      C1170   1.397       .  A
C1165      H1175   1.082       .  S
C1166      C1171   1.492       .  S
C1166      C1167   1.409       .  A
C1167      C1168   1.400       .  A
C1167      H1172   1.082       .  S
C1168      C1169   1.404       .  A
C1168      H1173   1.083       .  S
C1169      C1170   1.403       .  A
C1170      H1174   1.083       .  S
C1171      C1176   1.408       .  A
C1171      C1180   1.408       .  A
C1176      C1177   1.398       .  A
C1176      H1181   1.082       .  S
C1177      C1178   1.404       .  A
C1177      H1182   1.083       .  S
C1178      C1179   1.404       .  A
C1179      C1180   1.398       .  A
C1179      H1183   1.083       .  S
C1180      H1184   1.082       .  S
C1185      C1186   1.406       .  A
C1185      C1190   1.398       .  A
C1185      H1195   1.083       .  S
C1186      C1191   1.486       .  S
C1186      C1187   1.406       .  A
C1187      C1188   1.396       .  A
C1187      H1192   1.083       .  S
C1188      C1189   1.405       .  A
C1188      H1193   1.083       .  S
C1189      C1190   1.406       .  A
C1190      H1194   1.083       .  S
C1191      C1196   1.406       .  A
C1191      C1200   1.405       .  A
C1196      C1197   1.398       .  A
C1196      H1201   1.083       .  S
C1197      C1198   1.406       .  A
C1197      H1202   1.082       .  S
C1198      C1199   1.405       .  A
C1199      C1200   1.396       .  A
C1199      H1203   1.081       .  S
C1200      H1204   1.083       .  S
C1205      C1206   1.405       .  A
C1205      C1210   1.396       .  A
C1205      H1215   1.083       .  S
C1206      C1211   1.484   1_556  S
C1206      C1207   1.405       .  A
C1207      C1208   1.396       .  A
C1207      H1212   1.083       .  S
C1208      C1209   1.405       .  A
C1208      H1213   1.082       .  S
C1209      C1210   1.405       .  A
C1210      H1214   1.082       .  S
C1211      C1216   1.405       .  A
C1211      C1220   1.406       .  A
C1216      C1217   1.395       .  A
C1216      H1221   1.083       .  S
C1217      C1218   1.404       .  A
C1217      H1222   1.082       .  S
C1218      C1219   1.404       .  A
C1219      C1220   1.397       .  A
C1219      H1223   1.082       .  S
C1220      H1224   1.083       .  S
C1225      C1226   1.404       .  A
C1225      C1230   1.397       .  A
C1225      H1235   1.083       .  S
C1226      C1231   1.480       .  S
C1226      C1227   1.403       .  A
C1227      C1228   1.395       .  A
C1227      H1232   1.083       .  S
C1228      C1229   1.406       .  A
C1228      H1233   1.081       .  S
C1229      C1230   1.407       .  A
C1230      H1234   1.081       .  S
C1231      C1236   1.404       .  A
C1231      C1240   1.405       .  A
C1236      C1237   1.395       .  A
C1236      H1241   1.083       .  S
C1237      C1238   1.405       .  A
C1237      H1242   1.083       .  S
C1238      C1239   1.404       .  A
C1239      C1240   1.397       .  A
C1239      H1243   1.083       .  S
C1240      H1244   1.083       .  S
C1245      C1246   1.406       .  A
C1245      C1250   1.394       .  A
C1245      H1255   1.083       .  S
C1246      C1251   1.483       .  S
C1246      C1247   1.406       .  A
C1247      C1248   1.397       .  A
C1247      H1252   1.082       .  S
C1248      C1249   1.403       .  A
C1248      H1253   1.083       .  S
C1249      C1250   1.402       .  A
C1250      H1254   1.083       .  S
C1251      C1256   1.406       .  A
C1251      C1260   1.406       .  A
C1256      C1257   1.393       .  A
C1256      H1261   1.082       .  S
C1257      C1258   1.403       .  A
C1257      H1262   1.083       .  S
C1258      C1259   1.405       .  A
C1259      C1260   1.398       .  A
C1259      H1263   1.083       .  S
C1260      H1264   1.083       .  S
C1265      C1266   1.402       .  A
C1265      C1270   1.392       .  A
C1265      H1275   1.083       .  S
C1266      C1271   1.473       .  S
C1266      C1267   1.403       .  A
C1267      C1268   1.395       .  A
C1267      H1272   1.083       .  S
C1268      C1269   1.405       .  A
C1268      H1273   1.081       .  S
C1269      C1270   1.405       .  A
C1270      H1274   1.081       .  S
C1271      C1276   1.403       .  A
C1271      C1280   1.403       .  A
C1276      C1277   1.393       .  A
C1276      H1281   1.083       .  S
C1277      C1278   1.405       .  A
C1277      H1282   1.083       .  S
C1278      C1279   1.404       .  A
C1279      C1280   1.395       .  A
C1279      H1283   1.083       .  S
C1280      H1284   1.083       .  S
C1285      C1286   1.404       .  A
C1285      C1290   1.395       .  A
C1285      H1295   1.083       .  S
C1286      C1291   1.480       .  S
C1286      C1287   1.405       .  A
C1287      C1288   1.395       .  A
C1287      H1292   1.083       .  S
C1288      C1289   1.404       .  A
C1288      H1293   1.083       .  S
C1289      C1290   1.405       .  A
C1290      H1294   1.083       .  S
C1291      C1296   1.403       .  A
C1291      C1300   1.404       .  A
C1296      C1297   1.394       .  A
C1296      H1301   1.083       .  S
C1297      C1298   1.406       .  A
C1297      H1302   1.081       .  S
C1298      C1299   1.406       .  A
C1299      C1300   1.396       .  A
C1299      H1303   1.081       .  S
C1300      H1304   1.083       .  S
C1305      C1306   1.410       .  A
C1305      C1310   1.400       .  A
C1305      H1315   1.082       .  S
C1306      C1311   1.494       .  S
C1306      C1307   1.408       .  A
C1307      C1308   1.395       .  A
C1307      H1312   1.082       .  S
C1308      C1309   1.403       .  A
C1308      H1313   1.083       .  S
C1309      C1310   1.403       .  A
C1310      H1314   1.083       .  S
C1311      C1316   1.408       .  A
C1311      C1320   1.409       .  A
C1316      C1317   1.398       .  A
C1316      H1321   1.082       .  S
C1317      C1318   1.404       .  A
C1317      H1322   1.083       .  S
C1318      C1319   1.403       .  A
C1319      C1320   1.396       .  A
C1319      H1323   1.083       .  S
C1320      H1324   1.082       .  S
C1325      C1326   1.406       .  A
C1325      C1330   1.396       .  A
C1325      H1335   1.083       .  S
C1326      C1331   1.482       .  S
C1326      C1327   1.405       .  A
C1327      C1328   1.394       .  A
C1327      H1332   1.083       .  S
C1328      C1329   1.404       .  A
C1328      H1333   1.082       .  S
C1329      C1330   1.404       .  A
C1330      H1334   1.082       .  S
C1331      C1336   1.406       .  A
C1331      C1340   1.405       .  A
C1336      C1337   1.395       .  A
C1336      H1341   1.083       .  S
C1337      C1338   1.404       .  A
C1337      H1342   1.083       .  S
C1338      C1339   1.405       .  A
C1339      C1340   1.395       .  A
C1339      H1343   1.083       .  S
C1340      H1344   1.083       .  S
C1345      C1346   1.406       .  A
C1345      C1350   1.401       .  A
C1345      H1355   1.083       .  S
C1346      C1351   1.488       .  S
C1346      C1347   1.405       .  A
C1347      C1348   1.397       .  A
C1347      H1352   1.083       .  S
C1348      C1349   1.406       .  A
C1348      H1353   1.081       .  S
C1349      C1350   1.407       .  A
C1350      H1354   1.082       .  S
C1351      C1356   1.406       .  A
C1351      C1360   1.406       .  A
C1356      C1357   1.400       .  A
C1356      H1361   1.083       .  S
C1357      C1358   1.406       .  A
C1357      H1362   1.083       .  S
C1358      C1359   1.406       .  A
C1359      C1360   1.398       .  A
C1359      H1363   1.083       .  S
C1360      H1364   1.083       .  S
C1365      C1366   1.406       .  A
C1365      C1370   1.394       .  A
C1365      H1375   1.082       .  S
C1366      C1371   1.485   1_565  S
C1366      C1367   1.405       .  A
C1367      C1368   1.398       .  A
C1367      H1372   1.083       .  S
C1368      C1369   1.407       .  A
C1368      H1373   1.081       .  S
C1369      C1370   1.403       .  A
C1370      H1374   1.083       .  S
C1371      C1376   1.405       .  A
C1371      C1380   1.407       .  A
C1376      C1377   1.393       .  A
C1376      H1381   1.083       .  S
C1377      C1378   1.403       .  A
C1377      H1382   1.081       .  S
C1378      C1379   1.405       .  A
C1379      C1380   1.399       .  A
C1379      H1383   1.083       .  S
C1380      H1384   1.082       .  S
C1385      C1386   1.406       .  A
C1385      C1390   1.397       .  A
C1385      H1395   1.082       .  S
C1386      C1391   1.488       .  S
C1386      C1387   1.408       .  A
C1387      C1388   1.395       .  A
C1387      H1392   1.082       .  S
C1388      C1389   1.402       .  A
C1388      H1393   1.083       .  S
C1389      C1390   1.405       .  A
C1390      H1394   1.083       .  S
C1391      C1396   1.409       .  A
C1391      C1400   1.406       .  A
C1396      C1397   1.400       .  A
C1396      H1401   1.082       .  S
C1397      C1398   1.403       .  A
C1397      H1402   1.083       .  S
C1398      C1399   1.403       .  A
C1399      C1400   1.394       .  A
C1399      H1403   1.083       .  S
C1400      H1404   1.082       .  S
C1405      C1406   1.408       .  A
C1405      C1410   1.400       .  A
C1405      H1415   1.082       .  S
C1406      C1411   1.495   1_565  S
C1406      C1407   1.407       .  A
C1407      C1408   1.400       .  A
C1407      H1412   1.082       .  S
C1408      C1409   1.408       .  A
C1408      H1413   1.081       .  S
C1409      C1410   1.406       .  A
C1410      H1414   1.081       .  S
C1411      C1416   1.408       .  A
C1411      C1420   1.407       .  A
C1416      C1417   1.401       .  A
C1416      H1421   1.082       .  S
C1417      C1418   1.406       .  A
C1417      H1422   1.082       .  S
C1418      C1419   1.405       .  A
C1419      C1420   1.399       .  A
C1419      H1423   1.082       .  S
C1420      H1424   1.082       .  S
C1425      C1426   1.407       .  A
C1425      C1430   1.398       .  A
C1425      H1435   1.083       .  S
C1426      C1431   1.485       .  S
C1426      C1427   1.405       .  A
C1427      C1428   1.396       .  A
C1427      H1432   1.083       .  S
C1428      C1429   1.405       .  A
C1428      H1433   1.083       .  S
C1429      C1430   1.405       .  A
C1430      H1434   1.083       .  S
C1431      C1436   1.405       .  A
C1431      C1440   1.405       .  A
C1436      C1437   1.397       .  A
C1436      H1441   1.083       .  S
C1437      C1438   1.406       .  A
C1437      H1442   1.082       .  S
C1438      C1439   1.405       .  A
C1439      C1440   1.396       .  A
C1439      H1443   1.081       .  S
C1440      H1444   1.083       .  S
C1445      C1446   1.405       .  A
C1445      C1450   1.397       .  A
C1445      H1455   1.083       .  S
C1446      C1451   1.480       .  S
C1446      C1447   1.404       .  A
C1447      C1448   1.395       .  A
C1447      H1452   1.083       .  S
C1448      C1449   1.405       .  A
C1448      H1453   1.083       .  S
C1449      C1450   1.406       .  A
C1450      H1454   1.083       .  S
C1451      C1456   1.404       .  A
C1451      C1460   1.404       .  A
C1456      C1457   1.395       .  A
C1456      H1461   1.083       .  S
C1457      C1458   1.405       .  A
C1457      H1462   1.082       .  S
C1458      C1459   1.406       .  A
C1459      C1460   1.396       .  A
C1459      H1463   1.082       .  S
C1460      H1464   1.083       .  S
C1465      C1466   1.405       .  A
C1465      C1470   1.397       .  A
C1465      H1475   1.083       .  S
C1466      C1471   1.484       .  S
C1466      C1467   1.406       .  A
C1467      C1468   1.397       .  A
C1467      H1472   1.083       .  S
C1468      C1469   1.405       .  A
C1468      H1473   1.083       .  S
C1469      C1470   1.406       .  A
C1470      H1474   1.083       .  S
C1471      C1476   1.406       .  A
C1471      C1480   1.405       .  A
C1476      C1477   1.399       .  A
C1476      H1481   1.083       .  S
C1477      C1478   1.406       .  A
C1477      H1482   1.082       .  S
C1478      C1479   1.404       .  A
C1479      C1480   1.396       .  A
C1479      H1483   1.082       .  S
C1480      H1484   1.083       .  S
C1485      C1486   1.406       .  A
C1485      C1490   1.395       .  A
C1485      H1495   1.083       .  S
C1486      C1491   1.484       .  S
C1486      C1487   1.407       .  A
C1487      C1488   1.397       .  A
C1487      H1492   1.082       .  S
C1488      C1489   1.404       .  A
C1488      H1493   1.083       .  S
C1489      C1490   1.403       .  A
C1490      H1494   1.083       .  S
C1491      C1496   1.406       .  A
C1491      C1500   1.406       .  A
C1496      C1497   1.396       .  A
C1496      H1501   1.083       .  S
C1497      C1498   1.404       .  A
C1497      H1502   1.082       .  S
C1498      C1499   1.404       .  A
C1499      C1500   1.397       .  A
C1499      H1503   1.082       .  S
C1500      H1504   1.083       .  S
C1505      C1506   1.408       .  A
C1505      C1510   1.398       .  A
C1505      H1515   1.082       .  S
C1506      C1511   1.492       .  S
C1506      C1507   1.407       .  A
C1507      C1508   1.399       .  A
C1507      H1512   1.083       .  S
C1508      C1509   1.405       .  A
C1508      H1513   1.082       .  S
C1509      C1510   1.404       .  A
C1510      H1514   1.082       .  S
C1511      C1516   1.408       .  A
C1511      C1520   1.408       .  A
C1516      C1517   1.399       .  A
C1516      H1521   1.083       .  S
C1517      C1518   1.403       .  A
C1517      H1522   1.083       .  S
C1518      C1519   1.404       .  A
C1519      C1520   1.399       .  A
C1519      H1523   1.083       .  S
C1520      H1524   1.082       .  S
C1525      C1526   1.404       .  A
C1525      C1530   1.398       .  A
C1525      H1535   1.083       .  S
C1526      C1531   1.482   1_565  S
C1526      C1527   1.405       .  A
C1527      C1528   1.397       .  A
C1527      H1532   1.083       .  S
C1528      C1529   1.405       .  A
C1528      H1533   1.083       .  S
C1529      C1530   1.405       .  A
C1530      H1534   1.082       .  S
C1531      C1536   1.405       .  A
C1531      C1540   1.404       .  A
C1536      C1537   1.397       .  A
C1536      H1541   1.083       .  S
C1537      C1538   1.406       .  A
C1537      H1542   1.082       .  S
C1538      C1539   1.406       .  A
C1539      C1540   1.397       .  A
C1539      H1543   1.082       .  S
C1540      H1544   1.083       .  S
C1545      C1546   1.406       .  A
C1545      C1550   1.397       .  A
C1545      H1555   1.083       .  S
C1546      C1551   1.486       .  S
C1546      C1547   1.406       .  A
C1547      C1548   1.398       .  A
C1547      H1552   1.083       .  S
C1548      C1549   1.404       .  A
C1548      H1553   1.082       .  S
C1549      C1550   1.404       .  A
C1550      H1554   1.083       .  S
C1551      C1556   1.406       .  A
C1551      C1560   1.405       .  A
C1556      C1557   1.398       .  A
C1556      H1561   1.083       .  S
C1557      C1558   1.406       .  A
C1557      H1562   1.083       .  S
C1558      C1559   1.405       .  A
C1559      C1560   1.397       .  A
C1559      H1563   1.083       .  S
C1560      H1564   1.083       .  S
C1565      C1566   1.407       .  A
C1565      C1570   1.398       .  A
C1565      H1575   1.083       .  S
C1566      C1571   1.487       .  S
C1566      C1567   1.406       .  A
C1567      C1568   1.397       .  A
C1567      H1572   1.083       .  S
C1568      C1569   1.405       .  A
C1568      H1573   1.083       .  S
C1569      C1570   1.405       .  A
C1570      H1574   1.083       .  S
C1571      C1576   1.405       .  A
C1571      C1580   1.405       .  A
C1576      C1577   1.397       .  A
C1576      H1581   1.083       .  S
C1577      C1578   1.407       .  A
C1577      H1582   1.081       .  S
C1578      C1579   1.406       .  A
C1579      C1580   1.397       .  A
C1579      H1583   1.081       .  S
C1580      H1584   1.083       .  S
C1585      C1586   1.405       .  A
C1585      C1590   1.396       .  A
C1585      H1595   1.083       .  S
C1586      C1591   1.487       .  S
C1586      C1587   1.406       .  A
C1587      C1588   1.400       .  A
C1587      H1592   1.083       .  S
C1588      C1589   1.406       .  A
C1588      H1593   1.083       .  S
C1589      C1590   1.405       .  A
C1590      H1594   1.083       .  S
C1591      C1596   1.405       .  A
C1591      C1600   1.407       .  A
C1596      C1597   1.396       .  A
C1596      H1601   1.083       .  S
C1597      C1598   1.405       .  A
C1597      H1602   1.082       .  S
C1598      C1599   1.405       .  A
C1599      C1600   1.400       .  A
C1599      H1603   1.083       .  S
C1600      H1604   1.083       .  S
C1605      C1606   1.406       .  A
C1605      C1610   1.398       .  A
C1605      H1615   1.083       .  S
C1606      C1611   1.484       .  S
C1606      C1607   1.404       .  A
C1607      C1608   1.397       .  A
C1607      H1612   1.083       .  S
C1608      C1609   1.407       .  A
C1608      H1613   1.083       .  S
C1609      C1610   1.405       .  A
C1610      H1614   1.083       .  S
C1611      C1616   1.404       .  A
C1611      C1620   1.406       .  A
C1616      C1617   1.396       .  A
C1616      H1621   1.083       .  S
C1617      C1618   1.405       .  A
C1617      H1622   1.082       .  S
C1618      C1619   1.406       .  A
C1619      C1620   1.400       .  A
C1619      H1623   1.082       .  S
C1620      H1624   1.083       .  S
C1625      C1626   1.405       .  A
C1625      C1630   1.398       .  A
C1625      H1635   1.083       .  S
C1626      C1631   1.489       .  S
C1626      C1627   1.406       .  A
C1627      C1628   1.400       .  A
C1627      H1632   1.083       .  S
C1628      C1629   1.408       .  A
C1628      H1633   1.081       .  S
C1629      C1630   1.407       .  A
C1630      H1634   1.081       .  S
C1631      C1636   1.407       .  A
C1631      C1640   1.406       .  A
C1636      C1637   1.400       .  A
C1636      H1641   1.083       .  S
C1637      C1638   1.406       .  A
C1637      H1642   1.083       .  S
C1638      C1639   1.405       .  A
C1639      C1640   1.398       .  A
C1639      H1643   1.083       .  S
C1640      H1644   1.083       .  S
C1645      C1646   1.407       .  A
C1645      C1650   1.397       .  A
C1645      H1655   1.083       .  S
C1646      C1651   1.488       .  S
C1646      C1647   1.407       .  A
C1647      C1648   1.398       .  A
C1647      H1652   1.082       .  S
C1648      C1649   1.404       .  A
C1648      H1653   1.083       .  S
C1649      C1650   1.404       .  A
C1650      H1654   1.083       .  S
C1651      C1656   1.407       .  A
C1651      C1660   1.408       .  A
C1656      C1657   1.396       .  A
C1656      H1661   1.082       .  S
C1657      C1658   1.402       .  A
C1657      H1662   1.083       .  S
C1658      C1659   1.403       .  A
C1659      C1660   1.397       .  A
C1659      H1663   1.083       .  S
C1660      H1664   1.082       .  S
C1665      C1666   1.404       .  A
C1665      C1670   1.394       .  A
C1665      H1675   1.083       .  S
C1666      C1671   1.477       .  S
C1666      C1667   1.404       .  A
C1667      C1668   1.395       .  A
C1667      H1672   1.083       .  S
C1668      C1669   1.405       .  A
C1668      H1673   1.083       .  S
C1669      C1670   1.405       .  A
C1670      H1674   1.083       .  S
C1671      C1676   1.403       .  A
C1671      C1680   1.404       .  A
C1676      C1677   1.393       .  A
C1676      H1681   1.083       .  S
C1677      C1678   1.404       .  A
C1677      H1682   1.082       .  S
C1678      C1679   1.404       .  A
C1679      C1680   1.396       .  A
C1679      H1683   1.082       .  S
C1680      H1684   1.083       .  S
C1685      C1686   1.406       .  A
C1685      C1690   1.399       .  A
C1685      H1695   1.083       .  S
C1686      C1691   1.488   1_565  S
C1686      C1687   1.405       .  A
C1687      C1688   1.395       .  A
C1687      H1692   1.083       .  S
C1688      C1689   1.406       .  A
C1688      H1693   1.081       .  S
C1689      C1690   1.407       .  A
C1690      H1694   1.081       .  S
C1691      C1696   1.407       .  A
C1691      C1700   1.406       .  A
C1696      C1697   1.400       .  A
C1696      H1701   1.083       .  S
C1697      C1698   1.405       .  A
C1697      H1702   1.083       .  S
C1698      C1699   1.403       .  A
C1699      C1700   1.396       .  A
C1699      H1703   1.082       .  S
C1700      H1704   1.083       .  S
C1705      C1706   1.405       .  A
C1705      C1710   1.395       .  A
C1705      H1715   1.083       .  S
C1706      C1711   1.482       .  S
C1706      C1707   1.404       .  A
C1707      C1708   1.397       .  A
C1707      H1712   1.083       .  S
C1708      C1709   1.406       .  A
C1708      H1713   1.083       .  S
C1709      C1710   1.404       .  A
C1710      H1714   1.083       .  S
C1711      C1716   1.404       .  A
C1711      C1720   1.405       .  A
C1716      C1717   1.395       .  A
C1716      H1721   1.083       .  S
C1717      C1718   1.404       .  A
C1717      H1722   1.082       .  S
C1718      C1719   1.406       .  A
C1719      C1720   1.399       .  A
C1719      H1723   1.082       .  S
C1720      H1724   1.083       .  S
C1725      C1726   1.406       .  A
C1725      C1730   1.396       .  A
C1725      H1735   1.083       .  S
C1726      C1731   1.482       .  S
C1726      C1727   1.404       .  A
C1727      C1728   1.395       .  A
C1727      H1732   1.083       .  S
C1728      C1729   1.406       .  A
C1728      H1733   1.083       .  S
C1729      C1730   1.404       .  A
C1730      H1734   1.083       .  S
C1731      C1736   1.404       .  A
C1731      C1740   1.405       .  A
C1736      C1737   1.395       .  A
C1736      H1741   1.083       .  S
C1737      C1738   1.405       .  A
C1737      H1742   1.082       .  S
C1738      C1739   1.405       .  A
C1739      C1740   1.397       .  A
C1739      H1743   1.082       .  S
C1740      H1744   1.083       .  S
C1745      C1746   1.406       .  A
C1745      C1750   1.396       .  A
C1745      H1755   1.082       .  S
C1746      C1751   1.489       .  S
C1746      C1747   1.407       .  A
C1747      C1748   1.399       .  A
C1747      H1752   1.082       .  S
C1748      C1749   1.406       .  A
C1748      H1753   1.083       .  S
C1749      C1750   1.404       .  A
C1750      H1754   1.083       .  S
C1751      C1756   1.406       .  A
C1751      C1760   1.406       .  A
C1756      C1757   1.398       .  A
C1756      H1761   1.083       .  S
C1757      C1758   1.406       .  A
C1757      H1762   1.081       .  S
C1758      C1759   1.405       .  A
C1759      C1760   1.397       .  A
C1759      H1763   1.082       .  S
C1760      H1764   1.082       .  S
C1765      C1766   1.406       .  A
C1765      C1770   1.400       .  A
C1765      H1775   1.083       .  S
C1766      C1771   1.485       .  S
C1766      C1767   1.404       .  A
C1767      C1768   1.395       .  A
C1767      H1772   1.083       .  S
C1768      C1769   1.405       .  A
C1768      H1773   1.082       .  S
C1769      C1770   1.406       .  A
C1770      H1774   1.082       .  S
C1771      C1776   1.406       .  A
C1771      C1780   1.405       .  A
C1776      C1777   1.396       .  A
C1776      H1781   1.083       .  S
C1777      C1778   1.405       .  A
C1777      H1782   1.083       .  S
C1778      C1779   1.406       .  A
C1779      C1780   1.399       .  A
C1779      H1783   1.083       .  S
C1780      H1784   1.083       .  S
C1785      C1786   1.405       .  A
C1785      C1790   1.396       .  A
C1785      H1795   1.083       .  S
C1786      C1791   1.480       .  S
C1786      C1787   1.404       .  A
C1787      C1788   1.395       .  A
C1787      H1792   1.083       .  S
C1788      C1789   1.405       .  A
C1788      H1793   1.083       .  S
C1789      C1790   1.405       .  A
C1790      H1794   1.083       .  S
C1791      C1796   1.404       .  A
C1791      C1800   1.404       .  A
C1796      C1797   1.396       .  A
C1796      H1801   1.083       .  S
C1797      C1798   1.406       .  A
C1797      H1802   1.082       .  S
C1798      C1799   1.406       .  A
C1799      C1800   1.395       .  A
C1799      H1803   1.082       .  S
C1800      H1804   1.083       .  S
C1805      C1806   1.405       .  A
C1805      C1810   1.396       .  A
C1805      H1815   1.083       .  S
C1806      C1811   1.484       .  S
C1806      C1807   1.406       .  A
C1807      C1808   1.399       .  A
C1807      H1812   1.083       .  S
C1808      C1809   1.406       .  A
C1808      H1813   1.082       .  S
C1809      C1810   1.405       .  A
C1810      H1814   1.082       .  S
C1811      C1816   1.405       .  A
C1811      C1820   1.406       .  A
C1816      C1817   1.396       .  A
C1816      H1821   1.083       .  S
C1817      C1818   1.405       .  A
C1817      H1822   1.083       .  S
C1818      C1819   1.405       .  A
C1819      C1820   1.398       .  A
C1819      H1823   1.083       .  S
C1820      H1824   1.083       .  S
C1825      C1826   1.406       .  A
C1825      C1830   1.398       .  A
C1825      H1835   1.083       .  S
C1826      C1831   1.485       .  S
C1826      C1827   1.405       .  A
C1827      C1828   1.397       .  A
C1827      H1832   1.083       .  S
C1828      C1829   1.406       .  A
C1828      H1833   1.083       .  S
C1829      C1830   1.405       .  A
C1830      H1834   1.083       .  S
C1831      C1836   1.405       .  A
C1831      C1840   1.405       .  A
C1836      C1837   1.398       .  A
C1836      H1841   1.083       .  S
C1837      C1838   1.406       .  A
C1837      H1842   1.082       .  S
C1838      C1839   1.406       .  A
C1839      C1840   1.397       .  A
C1839      H1843   1.082       .  S
C1840      H1844   1.083       .  S
C1845      C1846   1.408       .  A
C1845      C1850   1.398       .  A
C1845      H1855   1.082       .  S
C1846      C1851   1.493       .  S
C1846      C1847   1.409       .  A
C1847      C1848   1.398       .  A
C1847      H1852   1.082       .  S
C1848      C1849   1.403       .  A
C1848      H1853   1.083       .  S
C1849      C1850   1.404       .  A
C1850      H1854   1.083       .  S
C1851      C1856   1.409       .  A
C1851      C1860   1.408       .  A
C1856      C1857   1.399       .  A
C1856      H1861   1.082       .  S
C1857      C1858   1.404       .  A
C1857      H1862   1.083       .  S
C1858      C1859   1.402       .  A
C1859      C1860   1.396       .  A
C1859      H1863   1.083       .  S
C1860      H1864   1.082       .  S
C1865      C1866   1.406       .  A
C1865      C1870   1.398       .  A
C1865      H1875   1.083       .  S
C1866      C1871   1.485       .  S
C1866      C1867   1.405       .  A
C1867      C1868   1.398       .  A
C1867      H1872   1.083       .  S
C1868      C1869   1.405       .  A
C1868      H1873   1.083       .  S
C1869      C1870   1.406       .  A
C1870      H1874   1.083       .  S
C1871      C1876   1.404       .  A
C1871      C1880   1.405       .  A
C1876      C1877   1.398       .  A
C1876      H1881   1.083       .  S
C1877      C1878   1.407       .  A
C1877      H1882   1.081       .  S
C1878      C1879   1.407       .  A
C1879      C1880   1.398       .  A
C1879      H1883   1.081       .  S
C1880      H1884   1.083       .  S
C1885      C1886   1.404       .  A
C1885      C1890   1.398       .  A
C1885      H1895   1.083       .  S
C1886      C1891   1.483       .  S
C1886      C1887   1.405       .  A
C1887      C1888   1.397       .  A
C1887      H1892   1.083       .  S
C1888      C1889   1.405       .  A
C1888      H1893   1.082       .  S
C1889      C1890   1.407       .  A
C1890      H1894   1.081       .  S
C1891      C1896   1.406       .  A
C1891      C1900   1.404       .  A
C1896      C1897   1.399       .  A
C1896      H1901   1.083       .  S
C1897      C1898   1.406       .  A
C1897      H1902   1.083       .  S
C1898      C1899   1.406       .  A
C1899      C1900   1.396       .  A
C1899      H1903   1.082       .  S
C1900      H1904   1.083       .  S
C1905      C1906   1.408       .  A
C1905      C1910   1.397       .  A
C1905      H1915   1.082       .  S
C1906      C1911   1.488       .  S
C1906      C1907   1.407       .  A
C1907      C1908   1.396       .  A
C1907      H1912   1.082       .  S
C1908      C1909   1.404       .  A
C1908      H1913   1.083       .  S
C1909      C1910   1.404       .  A
C1910      H1914   1.083       .  S
C1911      C1916   1.408       .  A
C1911      C1920   1.407       .  A
C1916      C1917   1.397       .  A
C1916      H1921   1.082       .  S
C1917      C1918   1.402       .  A
C1917      H1922   1.083       .  S
C1918      C1919   1.403       .  A
C1919      C1920   1.395       .  A
C1919      H1923   1.083       .  S
C1920      H1924   1.082       .  S
C1925      C1926   1.408       .  A
C1925      C1930   1.398       .  A
C1925      H1935   1.082       .  S
C1926      C1931   1.493       .  S
C1926      C1927   1.408       .  A
C1927      C1928   1.398       .  A
C1927      H1932   1.082       .  S
C1928      C1929   1.404       .  A
C1928      H1933   1.083       .  S
C1929      C1930   1.404       .  A
C1930      H1934   1.083       .  S
C1931      C1936   1.409       .  A
C1931      C1940   1.408       .  A
C1936      C1937   1.399       .  A
C1936      H1941   1.082       .  S
C1937      C1938   1.404       .  A
C1937      H1942   1.083       .  S
C1938      C1939   1.403       .  A
C1939      C1940   1.397       .  A
C1939      H1943   1.083       .  S
C1940      H1944   1.082       .  S
