geometry optimzed in LAMMPS
_audit_creation_date              2020-11-30 
_audit_creation_method            'lammps2cif' 
_symmetry_space_group_name_H-M    'P1' 
_symmetry_Int_Tables_number       1 
_symmetry_cell_setting            triclinic 
loop_ 
_symmetry_equiv_pos_as_xyz 
  x,y,z 
_cell_length_a                    60.88547329051561 
_cell_length_b                    60.9843392922495 
_cell_length_c                    89.55072132146674 
_cell_angle_alpha                 89.66698664655495 
_cell_angle_beta                  90.39720350932201 
_cell_angle_gamma                 121.9415445080546 
loop_ 
_atom_site_label 
_atom_site_type_symbol 
_atom_site_fract_x 
_atom_site_fract_y 
_atom_site_fract_z 
_atom_site_charge 
O1          O  0.04935825  0.10286421  0.27045802    -0.53030
C2          C  0.98832430  0.06284639  0.29878837     0.79600
O3          O  0.06229626  0.06770047  0.30842174    -0.54190
C4          C  0.07323440  0.11088813  0.27020454     0.79570
C5          C  0.05127156  0.13031127  0.31776458     0.81960
Cd6        Cd  0.04340582  0.09156649  0.29692015     1.37470
O7          O  0.99951041  0.07660909  0.28737543    -0.53030
O8          O  0.04360535  0.12999556  0.30457736    -0.51840
C9          C  0.04867241  0.04794691  0.30030520     0.81920
O10         O  0.05801795  0.11443350  0.32097990    -0.54210
O11         O  0.00246063  0.06291670  0.30919400    -0.52660
O12         O  0.08427131  0.11290471  0.28259191    -0.52650
O13         O  0.03351196  0.04882339  0.29099370    -0.51830
O14         O  0.10305719  0.23075931  0.37848503    -0.53030
C15         C  0.03039068  0.20205769  0.39640951     0.79600
O16         O  0.04140581  0.24234052  0.35740189    -0.54190
C17         C  0.11451923  0.24432002  0.36705413     0.79570
C18         C  0.04966721  0.17793946  0.34879686     0.81960
Cd19       Cd  0.05951327  0.21794871  0.36920756     1.37470
O20         O  0.05404729  0.20921236  0.39608287    -0.53030
O21         O  0.05683896  0.17799135  0.36207806    -0.51840
C22         C  0.05645946  0.26265658  0.36478714     0.81920
O23         O  0.04408184  0.19459983  0.34534120    -0.54210
O24         O  0.01913397  0.19917247  0.38399116    -0.52660
O25         O  0.10066517  0.24509003  0.35675977    -0.52650
O26         O  0.07214154  0.26188878  0.37372419    -0.51820
O27         O  0.10548447  0.39544596  0.39455815    -0.53030
C28         C  0.07632804  0.33610409  0.36458779     0.79600
O29         O  0.10047568  0.40735255  0.34388854    -0.54190
C30         C  0.12349648  0.41901592  0.39508984     0.79570
C31         C  0.15669899  0.39607420  0.36345501     0.81960
Cd32       Cd  0.10782552  0.39107296  0.36747642     1.37460
O33         O  0.07473052  0.34716617  0.37610864    -0.53030
O34         O  0.13908647  0.37912100  0.37168029    -0.51840
C35         C  0.07866040  0.40333458  0.34773278     0.81920
O36         O  0.15187904  0.41111305  0.35631450    -0.54210
O37         O  0.09163861  0.35033313  0.35443156    -0.52660
O38         O  0.13216104  0.43062927  0.38277566    -0.52650
O39         O  0.07152636  0.39600885  0.36101015    -0.51830
O40         O  0.50359502  0.41518653  0.27134315    -0.53030
C41         C  0.03109239  0.47512696  0.30056946     0.79600
O42         O  0.45651881  0.39908115  0.30912921    -0.54190
C43         C  0.48535506  0.39169572  0.27095187     0.79570
C44         C  0.03058126  0.40871414  0.31813540     0.81960
Cd45       Cd  0.50086378  0.42003733  0.29824976     1.37460
O46         O  0.03305030  0.46397927  0.28920417    -0.53030
O47         O  0.03737878  0.41544752  0.30475049    -0.51840
C48         C  0.45117896  0.41348984  0.30170770     0.81920
O49         O  0.50890542  0.40495636  0.32206779    -0.54210
O50         O  0.01609270  0.46094407  0.31085020    -0.52660
O51         O  0.47671034  0.38024883  0.28330762    -0.52650
O52         O  0.46870097  0.43066312  0.29353438    -0.51820
O53         O  0.24381303  0.35468018  0.39635454    -0.53030
C54         C  0.21185668  0.38010289  0.36528711     0.79600
O55         O  0.25800454  0.35575595  0.34580562    -0.54190
C56         C  0.24938659  0.33742468  0.39709873     0.79570
C57         C  0.18876827  0.30096898  0.36637470     0.81960
Cd58       Cd  0.23518756  0.35035507  0.36938283     1.37460
O59         O  0.22544285  0.38335910  0.37683224    -0.53030
O60         O  0.19079560  0.31844211  0.37481794    -0.51840
C61         C  0.27634042  0.37854837  0.34868956     0.81920
O62         O  0.20845354  0.30603887  0.35878329    -0.54210
O63         O  0.20984068  0.36398010  0.35573574    -0.52660
O64         O  0.25165106  0.32846096  0.38490267    -0.52650
O65         O  0.27700997  0.38722817  0.36158177    -0.51830
O66         O  0.38024927  0.42329439  0.28815592    -0.53030
C67         C  0.35282091  0.46861747  0.26964403     0.79600
O68         O  0.34595941  0.44803421  0.32005508    -0.54190
C69         C  0.39397530  0.42667453  0.29966485     0.79570
C70         C  0.41459456  0.00449581  0.29926605     0.81960
Cd71       Cd  0.36873817  0.45474833  0.29634191     1.37470
O72         O  0.35866583  0.45152349  0.26952905    -0.53030
O73         O  0.41230968  0.98784139  0.29004103    -0.51840
C74         C  0.32814690  0.42503923  0.31709330     0.81920
O75         O  0.39542914  0.99841109  0.30763439    -0.54210
O76         O  0.35101927  0.47679728  0.28223757    -0.52660
O77         O  0.39521251  0.44207472  0.30947620    -0.52650
O78         O  0.32775122  0.41669410  0.30413604    -0.51830
O79         O  0.08014891  0.07356551  0.22977873    -0.53030
C80         C  0.04190125  0.01262632  0.20148742     0.79600
O81         O  0.04510973  0.08592143  0.19177963    -0.54190
C82         C  0.08789584  0.09733263  0.23002387     0.79570
C83         C  0.10855024  0.07536163  0.18287235     0.81960
Cd84       Cd  0.06945880  0.06752562  0.20328158     1.37460
O85         O  0.05538357  0.02412325  0.21295292    -0.53030
O86         O  0.10848240  0.06857351  0.19623191    -0.51840
C87         C  0.02525468  0.07176484  0.19972083     0.81920
O88         O  0.09234199  0.08152675  0.17927352    -0.54210
O89         O  0.04165464  0.02640139  0.19098323    -0.52660
O90         O  0.09012266  0.10835643  0.21761567    -0.52650
O91         O  0.02627750  0.05647722  0.20883214    -0.51820
O92         O  0.21047238  0.12612967  0.12418471    -0.53030
C93         C  0.18044585  0.05430798  0.10546414     0.79600
O94         O  0.22140155  0.06406871  0.14438121    -0.54190
C95         C  0.22293700  0.13696202  0.13604813     0.79570
C96         C  0.15639658  0.07247621  0.15263355     0.81960
Cd97       Cd  0.19695466  0.08236133  0.13287539     1.37460
O98         O  0.18829920  0.07807767  0.10612756    -0.53030
O99         O  0.15710740  0.08003442  0.13938491    -0.51840
C100        C  0.24169033  0.07913966  0.13698191     0.81920
O101        O  0.17260293  0.06635040  0.15632002    -0.54210
O102        O  0.17735826  0.04250533  0.11768773    -0.52660
O103        O  0.22294888  0.12265423  0.14629467    -0.52650
O104        O  0.24084870  0.09483970  0.12812538    -0.51830
O105        O  0.40435091  0.40460047  0.21353666    -0.53030
C106        C  0.44981708  0.37684990  0.23184184     0.79600
O107        O  0.42793085  0.36850695  0.18221760    -0.54190
C108        C  0.40664064  0.41703496  0.20163308     0.79570
C109        C  0.48480143  0.43861337  0.20175718     0.81960
Cd110      Cd  0.43545391  0.39267438  0.20536070     1.37460
O111        O  0.43301953  0.38311315  0.23213545    -0.53030
O112        O  0.46868395  0.43619915  0.21143008    -0.51840
C113        C  0.40490679  0.35117662  0.18553934     0.81920
O114        O  0.47840007  0.41946155  0.19331944    -0.54210
O115        O  0.45770198  0.37491865  0.21917964    -0.52660
O116        O  0.42140796  0.41749301  0.19164428    -0.52650
O117        O  0.39698702  0.35171994  0.19846499    -0.51830
O118        O  0.33112747  0.26728345  0.10760929    -0.53030
C119        C  0.35772994  0.23431269  0.13806868     0.79600
O120        O  0.33406228  0.28053212  0.15792199    -0.54190
C121        C  0.31399968  0.27310521  0.10757125     0.79570
C122        C  0.27878180  0.21117481  0.13742172     0.81960
Cd123      Cd  0.32786307  0.25759521  0.13440010     1.37460
O124        O  0.36031192  0.24737569  0.12640475    -0.53030
O125        O  0.29565714  0.21384405  0.12823811    -0.51840
C126        C  0.35688712  0.29859211  0.15480978     0.81920
O127        O  0.28430523  0.23026541  0.14570562    -0.54210
O128        O  0.34217364  0.23273898  0.14788747    -0.52660
O129        O  0.30550680  0.27478544  0.12008525    -0.52650
O130        O  0.36518785  0.29897342  0.14185098    -0.51820
O131        O  0.37619821  0.13017635  0.10855640    -0.53030
C132        C  0.31540839  0.09952589  0.13759891     0.79600
O133        O  0.38576079  0.12324105  0.15922088    -0.54190
C134        C  0.39959695  0.14871039  0.10844829     0.79570
C135        C  0.37453507  0.17974457  0.13973538     0.81960
Cd136      Cd  0.37049548  0.13145587  0.13551859     1.37470
O137        O  0.32699413  0.09851328  0.12615612    -0.53030
O138        O  0.35811343  0.16228699  0.13119672    -0.51840
C139        C  0.38202146  0.10167898  0.15510539     0.81920
O140        O  0.38942848  0.17499885  0.14713739    -0.54210
O141        O  0.32918667  0.11448563  0.14801880    -0.52660
O142        O  0.41068246  0.15700805  0.12095141    -0.52650
O143        O  0.37553468  0.09522787  0.14164716    -0.51830
O144        O  0.39220360  0.02314146  0.23041784    -0.53030
C145        C  0.45201710  0.05278448  0.20034190     0.79600
O146        O  0.37697723  0.47790232  0.19204763    -0.54190
C147        C  0.36862860  0.50499480  0.23064733     0.79570
C148        C  0.38560379  0.05203291  0.18417006     0.81960
Cd149      Cd  0.39705168  0.02178527  0.20336436     1.37460
O150        O  0.44121145  0.05430785  0.21201343    -0.53030
O151        O  0.39267732  0.05851266  0.19756297    -0.51840
C152        C  0.39177439  0.47292337  0.19937412     0.81920
O153        O  0.38125269  0.03026584  0.17998036    -0.54210
O154        O  0.43753103  0.03772141  0.19014867    -0.52660
O155        O  0.35716886  0.49702318  0.21821181    -0.52650
O156        O  0.40874928  0.49046502  0.20764962    -0.51820
O157        O  0.04570729  0.29008365  0.45421208    -0.53030
C158        C  0.01500483  0.21734987  0.43650785     0.79600
O159        O  0.05592027  0.22729051  0.47495647    -0.54190
C160        C  0.06032493  0.30158408  0.46531629     0.79570
C161        C  0.49294082  0.23771354  0.48496994     0.81960
Cd162      Cd  0.03198812  0.24645971  0.46373925     1.37460
O163        O  0.02186967  0.24087788  0.43696412    -0.53030
O164        O  0.49254349  0.24473994  0.47171552    -0.51840
C165        C  0.07618606  0.24201581  0.46745276     0.81920
O166        O  0.50961720  0.23195479  0.48807947    -0.54210
O167        O  0.01268798  0.20614527  0.44885674    -0.52660
O168        O  0.06114357  0.28774309  0.47557771    -0.52650
O169        O  0.07562435  0.25801846  0.45872715    -0.51830
O170        O  0.39209415  0.18629919  0.54671794    -0.53030
C171        C  0.42173663  0.25964372  0.56462556     0.79600
O172        O  0.42922332  0.24514644  0.51336329    -0.54190
C173        C  0.37778300  0.17499303  0.53546905     0.79570
C174        C  0.36146189  0.23380737  0.53296013     0.81960
Cd175      Cd  0.40590693  0.23009932  0.53739413     1.37460
O176        O  0.41497642  0.23612418  0.56439451    -0.53030
O177        O  0.36209401  0.21816835  0.54196195    -0.51840
C178        C  0.44554065  0.23895283  0.51657929     0.81920
O179        O  0.38179318  0.24850608  0.52549675    -0.54210
O180        O  0.42448480  0.27060606  0.55213507    -0.52660
O181        O  0.37716521  0.18901401  0.52525420    -0.52650
O182        O  0.44538866  0.23149814  0.52980248    -0.51820
O183        O  0.16025151  0.25758684  0.45604442    -0.53030
C184        C  0.23253349  0.30452670  0.43724802     0.79600
O185        O  0.22582310  0.33450713  0.47561628    -0.54190
C186        C  0.14927269  0.25993295  0.46736772     0.79570
C187        C  0.21601568  0.26109939  0.48512629     0.81960
Cd188      Cd  0.20450138  0.29015245  0.46478188     1.37470
O189        O  0.20882375  0.28682982  0.43779443    -0.53030
O190        O  0.20886264  0.25370074  0.47184943    -0.51840
C191        C  0.21127159  0.33987040  0.46835705     0.81920
O192        O  0.22009778  0.28300804  0.48871524    -0.54210
O193        O  0.24419997  0.31336403  0.44954625    -0.52660
O194        O  0.16366640  0.27535369  0.47745659    -0.52650
O195        O  0.19397723  0.32242858  0.46017104    -0.51830
O196        O  0.22914928  0.18786990  0.56268016    -0.53030
C197        C  0.28817602  0.21518119  0.53276762     0.79600
O198        O  0.21140911  0.14036818  0.52486956    -0.54190
C199        C  0.20542778  0.17022603  0.56331791     0.79570
C200        C  0.22132841  0.21395768  0.51543637     0.81960
Cd201      Cd  0.23301053  0.18482491  0.53560812     1.37470
O202        O  0.27729515  0.21756211  0.54412846    -0.53030
O203        O  0.22855532  0.22129183  0.52871414    -0.51840
C204        C  0.22622902  0.13514193  0.53194264     0.81920
O205        O  0.21720412  0.19205669  0.51178573    -0.54210
O206        O  0.27370686  0.19961405  0.52275205    -0.52660
O207        O  0.19353738  0.16158291  0.55105838    -0.52650
O208        O  0.24382420  0.15273250  0.53991637    -0.51830
O209        O  0.20166218  0.41107324  0.45561126    -0.53030
C210        C  0.15663602  0.43576600  0.43534035     0.79600
O211        O  0.12410151  0.39505035  0.47328722    -0.54190
C212        C  0.19768158  0.39670280  0.46685499     0.79570
C213        C  0.19682515  0.46177392  0.48462066     0.81960
Cd214      Cd  0.16892749  0.42123324  0.46321251     1.37470
O215        O  0.17414885  0.43054003  0.43626271    -0.53030
O216        O  0.20584352  0.46288446  0.47176851    -0.51840
C217        C  0.11888769  0.37525016  0.46578856     0.81920
O218        O  0.17398558  0.44324051  0.48718878    -0.54210
O219        O  0.14720662  0.43765740  0.44744961    -0.52660
O220        O  0.18145542  0.39459904  0.47636382    -0.52650
O221        O  0.13651944  0.37691164  0.45763128    -0.51830
O222        O  0.26599859  0.04733332  0.56493646    -0.53030
C223        C  0.24024265  0.07873651  0.53384355     0.79600
O224        O  0.31437453  0.08128388  0.52745531    -0.54190
C225        C  0.28376392  0.04243981  0.56574850     0.79570
C226        C  0.24161671  0.01376132  0.51683424     0.81960
Cd227      Cd  0.26972005  0.05504150  0.53777771     1.37460
O228        O  0.23654171  0.06469729  0.54521652    -0.53030
O229        O  0.23291222  0.01283606  0.52976030    -0.51840
C230        C  0.31937990  0.10128241  0.53467330     0.81920
O231        O  0.26429139  0.03240439  0.51402245    -0.54210
O232        O  0.25654071  0.08089778  0.52436867    -0.52660
O233        O  0.29247951  0.03977554  0.55356735    -0.52650
O234        O  0.30163142  0.09973509  0.54266753    -0.51830
O235        O  0.04208591  0.27563459  0.96365262    -0.53030
C236        C  0.01799610  0.32328399  0.94418510     0.79600
O237        O  0.00933332  0.30260111  0.99467509    -0.54190
C238        C  0.05523075  0.27854246  0.97536494     0.79570
C239        C  0.07979989  0.35697902  0.97342043     0.81960
Cd240      Cd  0.03237450  0.30864204  0.97113195     1.37460
O241        O  0.02254585  0.30526167  0.94435620    -0.53030
O242        O  0.07621630  0.33943398  0.96449604    -0.51840
C243        C  0.49133312  0.27970907  0.99161017     0.81920
O244        O  0.06117694  0.35248257  0.98187379    -0.54210
O245        O  0.01659111  0.33211991  0.95664991    -0.52660
O246        O  0.05716453  0.29461807  0.98492613    -0.52650
O247        O  0.49081922  0.27146392  0.97860760    -0.51820
O248        O  0.38565120  0.22823754  0.05090793    -0.53030
C249        C  0.41511174  0.18477064  0.06941532     0.79600
O250        O  0.37439959  0.15528250  0.03045426    -0.54190
C251        C  0.37238494  0.22499117  0.03920611     0.79570
C252        C  0.44017339  0.23049120  0.02259778     0.81960
Cd253      Cd  0.39920129  0.19840910  0.04259464     1.37460
O254        O  0.40816414  0.20102425  0.06950662    -0.53030
O255        O  0.43948760  0.23794060  0.03563726    -0.51840
C256        C  0.35465360  0.14811170  0.03853004     0.81920
O257        O  0.42344944  0.20729680  0.01924131    -0.54210
O258        O  0.41787029  0.17726755  0.05682070    -0.52660
O259        O  0.37213948  0.21025795  0.02927338    -0.52650
O260        O  0.35588820  0.16390137  0.04805164    -0.51830
O261        O  0.21288340  0.43971037  0.94005427    -0.53030
C262        C  0.15471549  0.41036366  0.97076777     0.79600
O263        O  0.22698798  0.40960604  0.97918015    -0.54190
C264        C  0.23652977  0.44688099  0.93942953     0.79570
C265        C  0.22107737  0.47571191  0.98660805     0.81960
Cd266      Cd  0.20918437  0.43406935  0.96717494     1.37470
O267        O  0.16560676  0.42276399  0.95891079    -0.53030
O268        O  0.21374543  0.47519282  0.97330811    -0.51840
C269        C  0.21088860  0.38883833  0.97247993     0.81920
O270        O  0.22625000  0.45888257  0.99040771    -0.54210
O271        O  0.16888295  0.40926772  0.98072935    -0.52660
O272        O  0.24859615  0.45123115  0.95169239    -0.52650
O273        O  0.19473145  0.38938553  0.96384012    -0.51820
O274        O  0.22020817  0.05064587  0.06491501    -0.53030
C275        C  0.28128928  0.08974557  0.03732089     0.79600
O276        O  0.21331598  0.04009238  0.01390401    -0.54190
C277        C  0.19622843  0.04214113  0.06509431     0.79570
C278        C  0.22025756  0.10471284  0.03505100     0.81960
Cd279      Cd  0.22616614  0.06150932  0.03841538     1.37460
O280        O  0.26948987  0.07541689  0.04844025    -0.53030
O281        O  0.23642372  0.10449335  0.04383446    -0.51840
C282        C  0.21903815  0.02350159  0.01727119     0.81920
O283        O  0.20611040  0.08458192  0.02731892    -0.54210
O284        O  0.26772890  0.09050654  0.02683695    -0.52660
O285        O  0.18516588  0.03969380  0.05265897    -0.52650
O286        O  0.22517528  0.02273251  0.03068142    -0.51820
O287        O  0.18859618  0.30239424  0.96320177    -0.53030
C288        C  0.13426855  0.22937095  0.94693024     0.79600
O289        O  0.16351332  0.24520223  0.99717126    -0.54190
C290        C  0.18868400  0.31487983  0.97450752     0.79570
C291        C  0.10821692  0.25932671  0.97779300     0.81960
Cd292      Cd  0.15486082  0.26002450  0.97337405     1.37470
O293        O  0.15393861  0.25214508  0.94646767    -0.53030
O294        O  0.12585309  0.27469366  0.96899623    -0.51840
C295        C  0.18444658  0.24767627  0.99276414     0.81920
O296        O  0.11212984  0.24411449  0.98546969    -0.54210
O297        O  0.12627373  0.21939330  0.95969701    -0.52660
O298        O  0.17403641  0.30204776  0.98524023    -0.52650
O299        O  0.19024923  0.25327065  0.97916146    -0.51820
O300        O  0.23379806  0.18669892  0.04817854    -0.53030
C301        C  0.27990064  0.25860108  0.06788780     0.79600
O302        O  0.30959490  0.25233786  0.02933446    -0.54190
C303        C  0.23589318  0.17672221  0.03630442     0.79570
C304        C  0.23432929  0.24290714  0.02126534     0.81960
Cd305      Cd  0.26514888  0.23146739  0.04016727     1.37470
O306        O  0.26187165  0.23504489  0.06715735    -0.53030
O307        O  0.22755942  0.23461459  0.03444404    -0.51840
C308        C  0.31483363  0.23791123  0.03684162     0.81920
O309        O  0.25651384  0.24825364  0.01713279    -0.54210
O310        O  0.28877693  0.27060130  0.05569531    -0.52660
O311        O  0.25055344  0.19191737  0.02622217    -0.52650
O312        O  0.29726598  0.22087992  0.04505363    -0.51830
O313        O  0.07968401  0.03524652  0.73428791    -0.53030
C314        C  0.04716645  0.05750004  0.70336939     0.79600
O315        O  0.09256517  0.03266589  0.68313665    -0.54190
C316        C  0.08551677  0.01831593  0.73599199     0.79570
C317        C  0.02618028  0.47784071  0.70489672     0.81960
Cd318      Cd  0.07147199  0.02854895  0.70730920     1.37470
O319        O  0.06223798  0.06212163  0.71435746    -0.53030
O320        O  0.02669341  0.49596199  0.71193795    -0.51840
C321        C  0.11177715  0.05515089  0.68560387     0.81920
O322        O  0.04678670  0.48287961  0.69838196    -0.54210
O323        O  0.04421929  0.04049541  0.69418905    -0.52660
O324        O  0.08824001  0.50848466  0.72429461    -0.52650
O325        O  0.11363215  0.06439835  0.69847844    -0.51830
O326        O  0.19448494  0.12022389  0.60451651    -0.53030
C327        C  0.22813823  0.09660587  0.63533977     0.79600
O328        O  0.23015894  0.17028021  0.64155913    -0.54190
C329        C  0.18904862  0.13756586  0.60361411     0.79570
C330        C  0.16331942  0.09821256  0.65289576     0.81960
Cd331      Cd  0.20385163  0.12553523  0.63147003     1.37470
O332        O  0.21375053  0.09255317  0.62406770    -0.53030
O333        O  0.16211035  0.08889336  0.64012021    -0.51840
C334        C  0.24991710  0.17557088  0.63397982     0.81920
O335        O  0.18196557  0.12102597  0.65535920    -0.54210
O336        O  0.23039043  0.11300680  0.64475763    -0.52660
O337        O  0.18708920  0.14692777  0.61573079    -0.52650
O338        O  0.24821070  0.15800192  0.62575271    -0.51830
O339        O  0.38391479  0.27175649  0.60519609    -0.53030
C340        C  0.32357646  0.23450471  0.63370971     0.79600
O341        O  0.39824685  0.23884938  0.64322047    -0.54190
C342        C  0.40713465  0.27748748  0.60458128     0.79570
C343        C  0.38832354  0.30256057  0.65341156     0.81960
Cd344      Cd  0.37880966  0.26278364  0.63221348     1.37460
O345        O  0.33511084  0.24926908  0.62268517    -0.53030
O346        O  0.38132636  0.30287365  0.64012392    -0.51840
C347        C  0.38264457  0.21826440  0.63619002     0.81920
O348        O  0.39366076  0.28561724  0.65658194    -0.54210
O349        O  0.33743525  0.23367090  0.64398039    -0.52660
O350        O  0.41858869  0.28005255  0.61688907    -0.52650
O351        O  0.36593363  0.21859783  0.62796582    -0.51820
O352        O  0.39120844  0.38097937  0.73337984    -0.53030
C353        C  0.45297232  0.41842713  0.70523126     0.79600
O354        O  0.38308708  0.36778369  0.68195845    -0.54190
C355        C  0.36791380  0.37510513  0.73355786     0.79570
C356        C  0.39460021  0.43540245  0.70224861     0.81960
Cd357      Cd  0.39770054  0.39047317  0.70637634     1.37470
O358        O  0.44119983  0.40370864  0.71623720    -0.53030
O359        O  0.41053744  0.43461370  0.71095261    -0.51840
C360        C  0.38849115  0.35088320  0.68511782     0.81920
O361        O  0.37946201  0.41511004  0.69485485    -0.54210
O362        O  0.43933076  0.41933640  0.69485275    -0.52660
O363        O  0.35716421  0.37285947  0.72103530    -0.52650
O364        O  0.39544803  0.35053779  0.69841256    -0.51820
O365        O  0.33685356  0.08519836  0.60590476    -0.53030
C366        C  0.36474854  0.14521044  0.63571807     0.79600
O367        O  0.29047322  0.06853121  0.64408113    -0.54190
C368        C  0.31906301  0.06152161  0.60554663     0.79570
C369        C  0.36401589  0.07872542  0.65353692     0.81960
Cd370      Cd  0.33472715  0.08996960  0.63306715     1.37460
O371        O  0.36746797  0.13432286  0.62446923    -0.53030
O372        O  0.37145252  0.08580254  0.64026036    -0.51840
C373        C  0.28498130  0.08307741  0.63695099     0.81920
O374        O  0.34201621  0.07457222  0.65703290    -0.54210
O375        O  0.34905627  0.13074389  0.64566363    -0.52660
O376        O  0.31090043  0.05010282  0.61795300    -0.52650
O377        O  0.30235785  0.10047395  0.62880691    -0.51820
O378        O  0.43547788  0.06809938  0.73230746    -0.53030
C379        C  0.41182286  0.00844196  0.70259686     0.79600
O380        O  0.43357446  0.07984908  0.68151998    -0.54190
C381        C  0.45274098  0.09191352  0.73299538     0.79570
C382        C  0.99055486  0.07144207  0.70218151     0.81960
Cd383      Cd  0.44027793  0.06368660  0.70542950     1.37460
O384        O  0.40869623  0.01892541  0.71389707    -0.53030
O385        O  0.47364544  0.05496207  0.71092962    -0.51840
C386        C  0.41083781  0.07408167  0.68455429     0.81920
O387        O  0.98453983  0.08498276  0.69440563    -0.54210
O388        O  0.42719434  0.02327909  0.69264609    -0.52660
O389        O  0.46224554  0.10350189  0.72077371    -0.52650
O390        O  0.40259201  0.06562600  0.69754241    -0.51820
O391        O  0.05956063  0.37316973  0.90356015    -0.53030
C392        C  0.11713530  0.39316021  0.87219750     0.79600
O393        O  0.03806093  0.32294187  0.86652512    -0.54190
C394        C  0.03544839  0.35683257  0.90434595     0.79570
C395        C  0.05321642  0.39883050  0.85639487     0.81960
Cd396      Cd  0.06239271  0.36792936  0.87661994     1.37470
O397        O  0.10837575  0.39770026  0.88381078    -0.53030
O398        O  0.06230584  0.40672535  0.86934669    -0.51840
C399        C  0.05080505  0.31612603  0.87448521     0.81920
O400        O  0.04622295  0.37582442  0.85315030    -0.54210
O401        O  0.10085076  0.37785351  0.86270183    -0.52660
O402        O  0.52318536  0.34835849  0.89217721    -0.52650
O403        O  0.06851691  0.33306619  0.88270871    -0.51820
O404        O  0.04370168  0.47076103  0.77729964    -0.53030
C405        C  0.98318421  0.44253341  0.80627351     0.79600
O406        O  0.05385682  0.46818464  0.82852819    -0.54190
C407        C  0.06747577  0.98827412  0.77688702     0.79570
C408        C  0.04357616  0.02333491  0.80759115     0.81960
Cd409      Cd  0.03850547  0.47429338  0.80417984     1.37470
O410        O  0.99484467  0.44038471  0.79523842    -0.53030
O411        O  0.02728388  0.00593417  0.79896903    -0.51840
C412        C  0.04988884  0.44616944  0.82534621     0.81920
O413        O  0.05813012  0.01838855  0.81517857    -0.54210
O414        O  0.99693944  0.45867037  0.81624375    -0.52660
O415        O  0.07876664  0.99737791  0.78925165    -0.52650
O416        O  0.04308093  0.43832607  0.81210092    -0.51820
O417        O  0.37358614  0.46249164  0.79124559    -0.53030
C418        C  0.34922666  0.39048532  0.77319771     0.79600
O419        O  0.38825287  0.40362838  0.81281485    -0.54190
C420        C  0.38720262  0.47424787  0.80263534     0.79570
C421        C  0.31990038  0.40661914  0.82093801     0.81960
Cd422      Cd  0.36176460  0.41926178  0.80067324     1.37470
O423        O  0.35337790  0.41313073  0.77355351    -0.53030
O424        O  0.32020216  0.41427454  0.80774459    -0.51840
C425        C  0.40840803  0.41953286  0.80555108     0.81920
O426        O  0.33739871  0.40217619  0.82441242    -0.54210
O427        O  0.34741412  0.37971038  0.78563780    -0.52660
O428        O  0.38806663  0.46066547  0.81304522    -0.52650
O429        O  0.40663290  0.43455185  0.79659084    -0.51820
O430        O  0.21407842  0.35417605  0.88424487    -0.53030
C431        C  0.24943677  0.42809305  0.89961141     0.79600
O432        O  0.25227918  0.40941194  0.84832555    -0.54190
C433        C  0.19863660  0.34217039  0.87353372     0.79570
C434        C  0.18794405  0.40468493  0.86975625     0.81960
Cd435      Cd  0.23048703  0.39730413  0.87305026     1.37460
O436        O  0.24283097  0.40462046  0.89956039    -0.53030
O437        O  0.18769426  0.38813062  0.87836444    -0.51840
C438        C  0.26910412  0.40398828  0.85172267     0.81920
O439        O  0.20813686  0.41837478  0.86197254    -0.54210
O440        O  0.25064548  0.43841882  0.88710799    -0.52660
O441        O  0.19902537  0.35539338  0.86251190    -0.52650
O442        O  0.26937707  0.39743453  0.86510905    -0.51820
O443        O  0.02927452  0.09214969  0.79620436    -0.53030
C444        C  0.48167003  0.11031711  0.77425876     0.79600
O445        O  0.44642284  0.06861253  0.81090205    -0.54190
C446        C  0.02518313  0.07657869  0.80680127     0.79570
C447        C  0.01444647  0.13578577  0.82578267     0.81960
Cd448      Cd  0.49243845  0.09676549  0.80297775     1.37460
O449        O  0.50014870  0.10671840  0.77614951    -0.53030
O450        O  0.02486290  0.13955976  0.81309247    -0.51840
C451        C  0.44355191  0.04891276  0.80429995     0.81920
O452        O  0.49278527  0.11507242  0.82757695    -0.54210
O453        O  0.47036319  0.11113055  0.78583958    -0.52660
O454        O  0.50704655  0.07141684  0.81569249    -0.52650
O455        O  0.46295744  0.05141952  0.79765126    -0.51820
O456        O  0.05337052  0.24066622  0.88818046    -0.53030
C457        C  0.09652910  0.21237736  0.90810031     0.79600
O458        O  0.07795195  0.20471756  0.85680531    -0.54190
C459        C  0.05842084  0.25543559  0.87699677     0.79570
C460        C  0.13554393  0.27095045  0.87650257     0.81960
Cd461      Cd  0.08404244  0.22756393  0.88045590     1.37470
O462        O  0.08023473  0.21927961  0.90763354    -0.53030
O463        O  0.11971650  0.27110560  0.88546270    -0.51840
C464        C  0.05475067  0.18694125  0.85922617     0.81920
O465        O  0.12779509  0.25053473  0.86900338    -0.54210
O466        O  0.10434375  0.20914658  0.89575418    -0.52660
O467        O  0.07411403  0.25635784  0.86750666    -0.52650
O468        O  0.04548911  0.18666269  0.87188184    -0.51830
C469        C  0.03943930  0.16839695  0.84787022    -0.08490
C470        C  0.02729874  0.15369648  0.83782807    -0.10050
C471        C  0.17993571  0.31496802  0.87417385    -0.08490
C472        C  0.16087256  0.29357016  0.87483477    -0.10050
C473        C  0.40267637  0.50188784  0.80348622    -0.08490
C474        C  0.41965926  0.02434558  0.80429945    -0.10050
C475        C  0.28669715  0.40449353  0.84079765    -0.08490
C476        C  0.30129490  0.40446207  0.83169266    -0.10050
C477        C  0.45546522  0.42866026  0.80712869    -0.08490
C478        C  0.43283542  0.42152494  0.80727557    -0.10050
C479        C  0.04437481  0.04716779  0.80868988    -0.08490
C480        C  0.03880056  0.06338686  0.80815177    -0.10050
C481        C  0.14424653  0.40331269  0.87019017    -0.08490
C482        C  0.16564016  0.40689951  0.86906164    -0.10050
C483        C  0.04863745  0.27217505  0.87546288    -0.08490
C484        C  0.04637431  0.29058400  0.87429397    -0.10050
C485        C  0.05192227  0.41569330  0.84564945    -0.08490
C486        C  0.05179743  0.43013563  0.83643053    -0.10050
C487        C  0.47213624  0.11039527  0.75952616    -0.08490
C488        C  0.46275326  0.10441075  0.74716594    -0.10050
C489        C  0.38037681  0.07661470  0.66434544    -0.08490
C490        C  0.39461699  0.07604149  0.67357446    -0.10050
C491        C  0.35536809  0.37391993  0.74742265    -0.08490
C492        C  0.34943962  0.37883585  0.75925640    -0.10050
C493        C  0.39997741  0.98095750  0.70142440    -0.08490
C494        C  0.39466373  0.45890470  0.70096686    -0.10050
C495        C  0.37732283  0.17278225  0.63683637    -0.08490
C496        C  0.38286855  0.19490565  0.63735363    -0.10050
C497        C  0.38889125  0.31988660  0.66456074    -0.08490
C498        C  0.38800610  0.33361807  0.67395473    -0.10050
C499        C  0.24313430  0.08490486  0.63698285    -0.08490
C500        C  0.26040185  0.08081988  0.63786292    -0.10050
C501        C  0.27379509  0.20008720  0.63466732    -0.08490
C502        C  0.29597417  0.21785417  0.63426684    -0.10050
C503        C  0.08017593  0.99896765  0.76287058    -0.08490
C504        C  0.08601268  0.00870006  0.75060946    -0.10050
C505        C  0.03223328  0.06929666  0.70184379    -0.08490
C506        C  0.01507223  0.07356644  0.70117248    -0.10050
C507        C  0.48059610  0.43501650  0.70479815    -0.08490
C508        C  0.50269163  0.45295999  0.70436221    -0.10050
C509        C  0.13010374  0.07002687  0.67409392    -0.08490
C510        C  0.14490622  0.08310322  0.66431930    -0.10050
C511        C  0.12007966  0.21670069  0.93354394    -0.08490
C512        C  0.10791975  0.21129428  0.92200228    -0.10050
C513        C  0.21695400  0.24500052  0.01127359    -0.08490
C514        C  0.20162349  0.24548018  0.00287237    -0.10050
C515        C  0.21909796  0.12751625  0.03398563    -0.08490
C516        C  0.22393221  0.14935431  0.03467876    -0.10050
C517        C  0.24810013  0.44727552  0.92540674    -0.08490
C518        C  0.25233717  0.44128745  0.91342858    -0.10050
C519        C  0.20990088  0.36503656  0.97453630    -0.08490
C520        C  0.20305376  0.34255080  0.97481471    -0.10050
C521        C  0.21983925  0.50700886  0.00625055    -0.08490
C522        C  0.22163940  0.49352588  0.99718852    -0.10050
C523        C  0.35665617  0.23590719  0.03748915    -0.08490
C524        C  0.33933919  0.23989738  0.03630742    -0.10050
C525        C  0.33112360  0.12357363  0.03693725    -0.08490
C526        C  0.30888691  0.10599407  0.03690808    -0.10050
C527        C  0.01751767  0.33511563  0.93036364    -0.08490
C528        C  0.02329032  0.34612346  0.91846295    -0.10050
C529        C  0.08505583  0.25988246  0.97868280    -0.08490
C530        C  0.06907249  0.26571170  0.97745402    -0.10050
C531        C  0.12724319  0.39649273  0.97261998    -0.08490
C532        C  0.10456125  0.38048382  0.97384286    -0.10050
C533        C  0.45844254  0.24806518  0.01185654    -0.08490
C534        C  0.47304394  0.26310343  0.00264182    -0.10050
C535        C  0.30688044  0.04904422  0.59167210    -0.08490
C536        C  0.29546883  0.04286477  0.57985696    -0.10050
C537        C  0.21232660  0.48017187  0.49599593    -0.08490
C538        C  0.22593659  0.49508958  0.50561615    -0.10050
C539        C  0.18812550  0.14814288  0.58939950    -0.08490
C540        C  0.19345710  0.15875045  0.57737177    -0.10050
C541        C  0.22405624  0.11062426  0.53116166    -0.08490
C542        C  0.22829451  0.09349137  0.53213870    -0.10050
C543        C  0.21338501  0.36435784  0.46920782    -0.08490
C544        C  0.20928319  0.38159816  0.46837817    -0.10050
C545        C  0.21902685  0.23036002  0.50480957    -0.08490
C546        C  0.21829837  0.24476031  0.49581003    -0.10050
C547        C  0.42339397  0.27227898  0.57852459    -0.08490
C548        C  0.41872832  0.27802174  0.59048713    -0.10050
C549        C  0.34382411  0.12521428  0.53395153    -0.08490
C550        C  0.36140753  0.14743417  0.53457257    -0.10050
C551        C  0.31577390  0.22797260  0.53164654    -0.08490
C552        C  0.33800238  0.23375791  0.53137072    -0.10050
C553        C  0.07678062  0.32914933  0.46599295    -0.08490
C554        C  0.09439990  0.35136251  0.46647334    -0.10050
C555        C  0.09951202  0.24172706  0.46873860    -0.08490
C556        C  0.12166957  0.24728506  0.46838611    -0.10050
C557        C  0.46262017  0.23901546  0.50552047    -0.08490
C558        C  0.47603299  0.23763453  0.49615328    -0.10050
C559        C  0.41684427  0.17323437  0.08305692    -0.08490
C560        C  0.41185277  0.16158132  0.09472843    -0.10050
C561        C  0.38386648  0.06931789  0.17399907    -0.08490
C562        C  0.38378281  0.08456239  0.16540327    -0.10050
C563        C  0.30274501  0.27486725  0.09382399    -0.08490
C564        C  0.29167850  0.27015743  0.08195411    -0.10050
C565        C  0.37020981  0.22007193  0.13979331    -0.08490
C566        C  0.37534758  0.20357326  0.14074043    -0.10050
C567        C  0.39475217  0.43181034  0.19977820    -0.08490
C568        C  0.39020479  0.44870293  0.19861438    -0.10050
C569        C  0.38796794  0.33233264  0.17486918    -0.08490
C570        C  0.37327949  0.31723146  0.16572250    -0.10050
C571        C  0.18315566  0.03836478  0.07901729    -0.08490
C572        C  0.17806996  0.04234314  0.09130627    -0.10050
C573        C  0.25484040  0.18690357  0.13833702    -0.08490
C574        C  0.23805413  0.16443799  0.13756619    -0.10050
C575        C  0.26535238  0.07959707  0.13854330    -0.08490
C576        C  0.28774151  0.08593556  0.13840409    -0.10050
C577        C  0.02602262  0.98508188  0.20068659    -0.08490
C578        C  0.00885676  0.46270831  0.20043006    -0.10050
C579        C  0.50183112  0.07182767  0.19849360    -0.08490
C580        C  0.47959226  0.06592066  0.19903095    -0.10050
C581        C  0.12544085  0.07463539  0.17212701    -0.08490
C582        C  0.13895743  0.07255208  0.16323060    -0.10050
C583        C  0.35648163  0.49213051  0.24438865    -0.08490
C584        C  0.35134292  0.48033057  0.25601351    -0.10050
C585        C  0.24471205  0.31589080  0.42322890    -0.08490
C586        C  0.25017832  0.32655552  0.41122410    -0.10050
C587        C  0.29490847  0.39447336  0.33757955    -0.08490
C588        C  0.30976353  0.40864944  0.32816014    -0.10050
C589        C  0.47301069  0.37970976  0.25708017    -0.08490
C590        C  0.46145884  0.37491987  0.24537668    -0.10050
C591        C  0.42660541  0.41131197  0.30231565    -0.08490
C592        C  0.40928157  0.41529355  0.30124674    -0.10050
C593        C  0.13525453  0.43110012  0.40909418    -0.08490
C594        C  0.14596408  0.43653539  0.42111139    -0.10050
C595        C  0.18078643  0.39731748  0.36249760    -0.08490
C596        C  0.19748914  0.39243553  0.36345762    -0.10050
C597        C  0.04734376  0.40652356  0.32855008    -0.08490
C598        C  0.06207149  0.40580228  0.33731782    -0.10050
C599        C  0.01297352  0.20506587  0.42246525    -0.08490
C600        C  0.01795444  0.20016191  0.41037005    -0.10050
C601        C  0.16458920  0.27683445  0.36550575    -0.08490
C602        C  0.14214129  0.25978656  0.36606535    -0.10050
C603        C  0.05684306  0.28623281  0.36317739    -0.08490
C604        C  0.06300373  0.30852834  0.36344212    -0.10050
C605        C  0.08614975  0.11447600  0.25624348    -0.08490
C606        C  0.09094323  0.11008149  0.24398309    -0.10050
C607        C  0.43853389  0.02884000  0.30016422    -0.08490
C608        C  0.46077543  0.04637599  0.29966486    -0.10050
C609        C  0.04910570  0.02475686  0.30163773    -0.08490
C610        C  0.04366110  0.50267786  0.30142180    -0.10050
C611        C  0.05100437  0.14716168  0.32875732    -0.08490
C612        C  0.04942762  0.16064713  0.33792813    -0.10050
O613        O  0.04935826  0.60286421  0.27045802    -0.53030
C614        C  0.98832431  0.56284639  0.29878837     0.79600
O615        O  0.06229627  0.56770047  0.30842174    -0.54190
C616        C  0.07323440  0.61088813  0.27020454     0.79570
C617        C  0.05127156  0.63031127  0.31776458     0.81960
Cd618      Cd  0.04340583  0.59156649  0.29692015     1.37470
O619        O  0.99951042  0.57660909  0.28737543    -0.53030
O620        O  0.04360535  0.62999555  0.30457736    -0.51840
C621        C  0.04867242  0.54794691  0.30030520     0.81920
O622        O  0.05801795  0.61443350  0.32097990    -0.54210
O623        O  0.00246064  0.56291669  0.30919400    -0.52660
O624        O  0.08427131  0.61290471  0.28259191    -0.52650
O625        O  0.03351197  0.54882339  0.29099370    -0.51830
O626        O  0.10305718  0.73075930  0.37848503    -0.53030
C627        C  0.03039068  0.70205768  0.39640951     0.79600
O628        O  0.04140580  0.74234051  0.35740189    -0.54190
C629        C  0.11451922  0.74432002  0.36705413     0.79570
C630        C  0.04966721  0.67793945  0.34879686     0.81960
Cd631      Cd  0.05951326  0.71794870  0.36920756     1.37470
O632        O  0.05404729  0.70921235  0.39608287    -0.53030
O633        O  0.05683896  0.67799135  0.36207806    -0.51840
C634        C  0.05645945  0.76265657  0.36478714     0.81920
O635        O  0.04408183  0.69459982  0.34534120    -0.54210
O636        O  0.01913397  0.69917246  0.38399116    -0.52660
O637        O  0.10066517  0.74509002  0.35675977    -0.52650
O638        O  0.07214153  0.76188877  0.37372419    -0.51820
O639        O  0.10548446  0.89544595  0.39455815    -0.53030
C640        C  0.07632803  0.83610408  0.36458779     0.79600
O641        O  0.10047568  0.90735254  0.34388854    -0.54190
C642        C  0.12349647  0.91901591  0.39508983     0.79570
C643        C  0.15669898  0.89607419  0.36345501     0.81960
Cd644      Cd  0.10782551  0.89107294  0.36747642     1.37460
O645        O  0.07473051  0.84716616  0.37610863    -0.53030
O646        O  0.13908646  0.87912098  0.37168028    -0.51840
C647        C  0.07866039  0.90333457  0.34773278     0.81920
O648        O  0.15187904  0.91111304  0.35631450    -0.54210
O649        O  0.09163860  0.85033312  0.35443156    -0.52660
O650        O  0.13216103  0.93062926  0.38277566    -0.52650
O651        O  0.07152636  0.89600884  0.36101015    -0.51830
O652        O  0.50359502  0.91518652  0.27134315    -0.53030
C653        C  0.03109238  0.97512696  0.30056946     0.79600
O654        O  0.45651881  0.89908116  0.30912921    -0.54190
C655        C  0.48535506  0.89169572  0.27095187     0.79570
C656        C  0.03058126  0.90871414  0.31813540     0.81960
Cd657      Cd  0.50086378  0.92003733  0.29824975     1.37460
O658        O  0.03305030  0.96397927  0.28920417    -0.53030
O659        O  0.03737878  0.91544752  0.30475049    -0.51840
C660        C  0.45117896  0.91348984  0.30170770     0.81920
O661        O  0.50890541  0.90495635  0.32206779    -0.54210
O662        O  0.01609270  0.96094407  0.31085020    -0.52660
O663        O  0.47671033  0.88024883  0.28330762    -0.52650
O664        O  0.46870096  0.93066311  0.29353437    -0.51820
O665        O  0.24381303  0.85468017  0.39635454    -0.53030
C666        C  0.21185668  0.88010288  0.36528711     0.79600
O667        O  0.25800455  0.85575594  0.34580562    -0.54190
C668        C  0.24938659  0.83742467  0.39709873     0.79570
C669        C  0.18876827  0.80096897  0.36637470     0.81960
Cd670      Cd  0.23518756  0.85035506  0.36938283     1.37460
O671        O  0.22544284  0.88335909  0.37683224    -0.53030
O672        O  0.19079560  0.81844210  0.37481794    -0.51840
C673        C  0.27634042  0.87854837  0.34868956     0.81920
O674        O  0.20845354  0.80603886  0.35878329    -0.54210
O675        O  0.20984068  0.86398010  0.35573574    -0.52660
O676        O  0.25165105  0.82846095  0.38490267    -0.52650
O677        O  0.27700997  0.88722816  0.36158177    -0.51830
O678        O  0.38024926  0.92329439  0.28815592    -0.53030
C679        C  0.35282090  0.96861747  0.26964403     0.79600
O680        O  0.34595941  0.94803420  0.32005509    -0.54190
C681        C  0.39397530  0.92667454  0.29966485     0.79570
C682        C  0.41459456  0.50449581  0.29926604     0.81960
Cd683      Cd  0.36873817  0.95474833  0.29634191     1.37470
O684        O  0.35866583  0.95152350  0.26952906    -0.53030
O685        O  0.41230969  0.48784138  0.29004103    -0.51840
C686        C  0.32814690  0.92503923  0.31709330     0.81920
O687        O  0.39542915  0.49841108  0.30763439    -0.54210
O688        O  0.35101927  0.97679728  0.28223757    -0.52660
O689        O  0.39521251  0.94207472  0.30947620    -0.52650
O690        O  0.32775122  0.91669410  0.30413605    -0.51830
O691        O  0.08014892  0.57356551  0.22977873    -0.53030
C692        C  0.04190125  0.51262633  0.20148742     0.79600
O693        O  0.04510974  0.58592143  0.19177963    -0.54190
C694        C  0.08789585  0.59733263  0.23002387     0.79570
C695        C  0.10855024  0.57536163  0.18287235     0.81960
Cd696      Cd  0.06945881  0.56752562  0.20328158     1.37460
O697        O  0.05538358  0.52412325  0.21295292    -0.53030
O698        O  0.10848241  0.56857351  0.19623191    -0.51840
C699        C  0.02525469  0.57176485  0.19972083     0.81920
O700        O  0.09234200  0.58152675  0.17927352    -0.54210
O701        O  0.04165465  0.52640140  0.19098323    -0.52660
O702        O  0.09012267  0.60835644  0.21761567    -0.52650
O703        O  0.02627751  0.55647722  0.20883214    -0.51820
O704        O  0.21047238  0.62612967  0.12418470    -0.53030
C705        C  0.18044585  0.55430799  0.10546414     0.79600
O706        O  0.22140156  0.56406872  0.14438121    -0.54190
C707        C  0.22293700  0.63696203  0.13604813     0.79570
C708        C  0.15639659  0.57247621  0.15263355     0.81960
Cd709      Cd  0.19695466  0.58236133  0.13287539     1.37460
O710        O  0.18829920  0.57807768  0.10612756    -0.53030
O711        O  0.15710741  0.58003443  0.13938491    -0.51840
C712        C  0.24169034  0.57913967  0.13698190     0.81920
O713        O  0.17260293  0.56635040  0.15632002    -0.54210
O714        O  0.17735826  0.54250533  0.11768773    -0.52660
O715        O  0.22294888  0.62265423  0.14629467    -0.52650
O716        O  0.24084870  0.59483971  0.12812538    -0.51830
O717        O  0.40435091  0.90460046  0.21353666    -0.53030
C718        C  0.44981708  0.87684990  0.23184184     0.79600
O719        O  0.42793085  0.86850696  0.18221760    -0.54190
C720        C  0.40664064  0.91703496  0.20163309     0.79570
C721        C  0.48480143  0.93861337  0.20175718     0.81960
Cd722      Cd  0.43545391  0.89267438  0.20536070     1.37460
O723        O  0.43301953  0.88311315  0.23213545    -0.53030
O724        O  0.46868395  0.93619915  0.21143008    -0.51840
C725        C  0.40490680  0.85117662  0.18553934     0.81920
O726        O  0.47840008  0.91946155  0.19331944    -0.54210
O727        O  0.45770198  0.87491864  0.21917964    -0.52660
O728        O  0.42140796  0.91749301  0.19164429    -0.52650
O729        O  0.39698702  0.85171994  0.19846499    -0.51830
O730        O  0.33112747  0.76728345  0.10760929    -0.53030
C731        C  0.35772994  0.73431269  0.13806869     0.79600
O732        O  0.33406228  0.78053213  0.15792199    -0.54190
C733        C  0.31399968  0.77310521  0.10757125     0.79570
C734        C  0.27878180  0.71117482  0.13742172     0.81960
Cd735      Cd  0.32786307  0.75759522  0.13440010     1.37460
O736        O  0.36031192  0.74737569  0.12640475    -0.53030
O737        O  0.29565714  0.71384405  0.12823811    -0.51840
C738        C  0.35688712  0.79859212  0.15480978     0.81920
O739        O  0.28430523  0.73026541  0.14570562    -0.54210
O740        O  0.34217364  0.73273898  0.14788747    -0.52660
O741        O  0.30550680  0.77478544  0.12008524    -0.52650
O742        O  0.36518785  0.79897343  0.14185098    -0.51820
O743        O  0.37619822  0.63017636  0.10855640    -0.53030
C744        C  0.31540840  0.59952590  0.13759890     0.79600
O745        O  0.38576080  0.62324106  0.15922089    -0.54190
C746        C  0.39959696  0.64871040  0.10844829     0.79570
C747        C  0.37453508  0.67974458  0.13973538     0.81960
Cd748      Cd  0.37049549  0.63145589  0.13551859     1.37470
O749        O  0.32699414  0.59851330  0.12615612    -0.53030
O750        O  0.35811344  0.66228700  0.13119672    -0.51840
C751        C  0.38202146  0.60167899  0.15510540     0.81920
O752        O  0.38942849  0.67499885  0.14713739    -0.54210
O753        O  0.32918667  0.61448564  0.14801880    -0.52660
O754        O  0.41068247  0.65700807  0.12095142    -0.52650
O755        O  0.37553468  0.59522788  0.14164716    -0.51830
O756        O  0.39220361  0.52314146  0.23041784    -0.53030
C757        C  0.45201711  0.55278449  0.20034190     0.79600
O758        O  0.37697722  0.97790232  0.19204764    -0.54190
C759        C  0.36862859  0.00499479  0.23064733     0.79570
C760        C  0.38560380  0.55203292  0.18417006     0.81960
Cd761      Cd  0.39705169  0.52178527  0.20336436     1.37460
O762        O  0.44121146  0.55430785  0.21201343    -0.53030
O763        O  0.39267733  0.55851267  0.19756297    -0.51840
C764        C  0.39177439  0.97292336  0.19937412     0.81920
O765        O  0.38125270  0.53026585  0.17998036    -0.54210
O766        O  0.43753103  0.53772142  0.19014867    -0.52660
O767        O  0.35716885  0.99702318  0.21821181    -0.52650
O768        O  0.40874928  0.99046501  0.20764962    -0.51820
O769        O  0.04570728  0.79008363  0.45421209    -0.53030
C770        C  0.01500482  0.71734986  0.43650785     0.79600
O771        O  0.05592027  0.72729050  0.47495647    -0.54190
C772        C  0.06032492  0.80158407  0.46531629     0.79570
C773        C  0.49294082  0.73771353  0.48496994     0.81960
Cd774      Cd  0.03198812  0.74645970  0.46373925     1.37460
O775        O  0.02186966  0.74087787  0.43696412    -0.53030
O776        O  0.49254348  0.74473993  0.47171552    -0.51840
C777        C  0.07618606  0.74201580  0.46745276     0.81920
O778        O  0.50961719  0.73195478  0.48807947    -0.54210
O779        O  0.01268798  0.70614526  0.44885674    -0.52660
O780        O  0.06114356  0.78774308  0.47557771    -0.52650
O781        O  0.07562435  0.75801846  0.45872715    -0.51830
O782        O  0.39209416  0.68629919  0.54671794    -0.53030
C783        C  0.42173663  0.75964372  0.56462556     0.79600
O784        O  0.42922332  0.74514643  0.51336329    -0.54190
C785        C  0.37778301  0.67499303  0.53546906     0.79570
C786        C  0.36146189  0.73380737  0.53296013     0.81960
Cd787      Cd  0.40590694  0.73009932  0.53739413     1.37460
O788        O  0.41497642  0.73612418  0.56439451    -0.53030
O789        O  0.36209401  0.71816834  0.54196195    -0.51840
C790        C  0.44554065  0.73895283  0.51657929     0.81920
O791        O  0.38179318  0.74850608  0.52549675    -0.54210
O792        O  0.42448481  0.77060606  0.55213508    -0.52660
O793        O  0.37716522  0.68901401  0.52525420    -0.52650
O794        O  0.44538866  0.73149814  0.52980248    -0.51820
O795        O  0.16025151  0.75758683  0.45604442    -0.53030
C796        C  0.23253349  0.80452669  0.43724802     0.79600
O797        O  0.22582309  0.83450712  0.47561628    -0.54190
C798        C  0.14927269  0.75993294  0.46736772     0.79570
C799        C  0.21601568  0.76109938  0.48512629     0.81960
Cd800      Cd  0.20450137  0.79015244  0.46478188     1.37470
O801        O  0.20882375  0.78682981  0.43779443    -0.53030
O802        O  0.20886264  0.75370073  0.47184943    -0.51840
C803        C  0.21127159  0.83987039  0.46835706     0.81920
O804        O  0.22009778  0.78300803  0.48871524    -0.54210
O805        O  0.24419997  0.81336402  0.44954625    -0.52660
O806        O  0.16366640  0.77535368  0.47745659    -0.52650
O807        O  0.19397722  0.82242857  0.46017104    -0.51830
O808        O  0.22914928  0.68786989  0.56268016    -0.53030
C809        C  0.28817602  0.71518118  0.53276762     0.79600
O810        O  0.21140912  0.64036817  0.52486956    -0.54190
C811        C  0.20542778  0.67022602  0.56331791     0.79570
C812        C  0.22132840  0.71395767  0.51543637     0.81960
Cd813      Cd  0.23301053  0.68482490  0.53560812     1.37470
O814        O  0.27729515  0.71756210  0.54412846    -0.53030
O815        O  0.22855531  0.72129182  0.52871414    -0.51840
C816        C  0.22622903  0.63514193  0.53194264     0.81920
O817        O  0.21720412  0.69205668  0.51178572    -0.54210
O818        O  0.27370686  0.69961404  0.52275205    -0.52660
O819        O  0.19353738  0.66158290  0.55105838    -0.52650
O820        O  0.24382421  0.65273250  0.53991637    -0.51830
O821        O  0.20166217  0.91107323  0.45561127    -0.53030
C822        C  0.15663601  0.93576599  0.43534035     0.79600
O823        O  0.12410150  0.89505034  0.47328722    -0.54190
C824        C  0.19768157  0.89670279  0.46685500     0.79570
C825        C  0.19682514  0.96177391  0.48462067     0.81960
Cd826      Cd  0.16892748  0.92123323  0.46321251     1.37470
O827        O  0.17414884  0.93054002  0.43626271    -0.53030
O828        O  0.20584351  0.96288445  0.47176851    -0.51840
C829        C  0.11888768  0.87525015  0.46578856     0.81920
O830        O  0.17398556  0.94324051  0.48718878    -0.54210
O831        O  0.14720661  0.93765739  0.44744961    -0.52660
O832        O  0.18145541  0.89459903  0.47636383    -0.52650
O833        O  0.13651943  0.87691163  0.45763128    -0.51830
O834        O  0.26599860  0.54733331  0.56493646    -0.53030
C835        C  0.24024266  0.57873651  0.53384355     0.79600
O836        O  0.31437454  0.58128388  0.52745531    -0.54190
C837        C  0.28376393  0.54243980  0.56574850     0.79570
C838        C  0.24161672  0.51376132  0.51683424     0.81960
Cd839      Cd  0.26972006  0.55504150  0.53777771     1.37460
O840        O  0.23654173  0.56469728  0.54521652    -0.53030
O841        O  0.23291223  0.51283606  0.52976030    -0.51840
C842        C  0.31937992  0.60128240  0.53467331     0.81920
O843        O  0.26429140  0.53240439  0.51402245    -0.54210
O844        O  0.25654072  0.58089778  0.52436867    -0.52660
O845        O  0.29247953  0.53977553  0.55356735    -0.52650
O846        O  0.30163143  0.59973509  0.54266753    -0.51830
O847        O  0.04208591  0.77563458  0.96365262    -0.53030
C848        C  0.01799610  0.82328399  0.94418510     0.79600
O849        O  0.00933332  0.80260111  0.99467508    -0.54190
C850        C  0.05523075  0.77854246  0.97536494     0.79570
C851        C  0.07979989  0.85697902  0.97342043     0.81960
Cd852      Cd  0.03237450  0.80864203  0.97113195     1.37460
O853        O  0.02254585  0.80526167  0.94435620    -0.53030
O854        O  0.07621630  0.83943397  0.96449604    -0.51840
C855        C  0.49133312  0.77970907  0.99161017     0.81920
O856        O  0.06117694  0.85248257  0.98187379    -0.54210
O857        O  0.01659111  0.83211990  0.95664991    -0.52660
O858        O  0.05716453  0.79461807  0.98492613    -0.52650
O859        O  0.49081922  0.77146392  0.97860760    -0.51820
O860        O  0.38565121  0.72823755  0.05090793    -0.53030
C861        C  0.41511175  0.68477066  0.06941533     0.79600
O862        O  0.37439960  0.65528250  0.03045427    -0.54190
C863        C  0.37238495  0.72499118  0.03920611     0.79570
C864        C  0.44017340  0.73049121  0.02259778     0.81960
Cd865      Cd  0.39920130  0.69840911  0.04259464     1.37460
O866        O  0.40816415  0.70102426  0.06950662    -0.53030
O867        O  0.43948761  0.73794061  0.03563726    -0.51840
C868        C  0.35465361  0.64811170  0.03853005     0.81920
O869        O  0.42344944  0.70729680  0.01924131    -0.54210
O870        O  0.41787030  0.67726756  0.05682071    -0.52660
O871        O  0.37213948  0.71025795  0.02927338    -0.52650
O872        O  0.35588820  0.66390138  0.04805164    -0.51830
O873        O  0.21288339  0.93971036  0.94005427    -0.53030
C874        C  0.15471548  0.91036365  0.97076778     0.79600
O875        O  0.22698798  0.90960603  0.97918016    -0.54190
C876        C  0.23652976  0.94688098  0.93942954     0.79570
C877        C  0.22107737  0.97571190  0.98660806     0.81960
Cd878      Cd  0.20918436  0.93406934  0.96717495     1.37470
O879        O  0.16560675  0.92276399  0.95891079    -0.53030
O880        O  0.21374543  0.97519281  0.97330812    -0.51840
C881        C  0.21088860  0.88883832  0.97247993     0.81920
O882        O  0.22624999  0.95888256  0.99040771    -0.54210
O883        O  0.16888294  0.90926771  0.98072935    -0.52660
O884        O  0.24859615  0.95123114  0.95169239    -0.52650
O885        O  0.19473144  0.88938552  0.96384013    -0.51820
O886        O  0.22020818  0.55064587  0.06491500    -0.53030
C887        C  0.28128929  0.58974558  0.03732089     0.79600
O888        O  0.21331599  0.54009238  0.01390401    -0.54190
C889        C  0.19622843  0.54214114  0.06509431     0.79570
C890        C  0.22025756  0.60471284  0.03505100     0.81960
Cd891      Cd  0.22616615  0.56150933  0.03841538     1.37460
O892        O  0.26948987  0.57541689  0.04844025    -0.53030
O893        O  0.23642373  0.60449336  0.04383446    -0.51840
C894        C  0.21903816  0.52350160  0.01727118     0.81920
O895        O  0.20611041  0.58458193  0.02731892    -0.54210
O896        O  0.26772890  0.59050655  0.02683695    -0.52660
O897        O  0.18516589  0.53969381  0.05265896    -0.52650
O898        O  0.22517528  0.52273252  0.03068142    -0.51820
O899        O  0.18859618  0.80239423  0.96320177    -0.53030
C900        C  0.13426855  0.72937095  0.94693024     0.79600
O901        O  0.16351332  0.74520223  0.99717126    -0.54190
C902        C  0.18868400  0.81487982  0.97450752     0.79570
C903        C  0.10821692  0.75932670  0.97779300     0.81960
Cd904      Cd  0.15486082  0.76002450  0.97337405     1.37470
O905        O  0.15393861  0.75214508  0.94646767    -0.53030
O906        O  0.12585309  0.77469366  0.96899623    -0.51840
C907        C  0.18444658  0.74767627  0.99276414     0.81920
O908        O  0.11212983  0.74411448  0.98546969    -0.54210
O909        O  0.12627373  0.71939329  0.95969701    -0.52660
O910        O  0.17403641  0.80204776  0.98524023    -0.52650
O911        O  0.19024923  0.75327064  0.97916146    -0.51820
O912        O  0.23379807  0.68669893  0.04817854    -0.53030
C913        C  0.27990064  0.75860108  0.06788780     0.79600
O914        O  0.30959491  0.75233787  0.02933446    -0.54190
C915        C  0.23589319  0.67672221  0.03630441     0.79570
C916        C  0.23432930  0.74290715  0.02126534     0.81960
Cd917      Cd  0.26514888  0.73146739  0.04016727     1.37470
O918        O  0.26187165  0.73504489  0.06715735    -0.53030
O919        O  0.22755943  0.73461460  0.03444404    -0.51840
C920        C  0.31483364  0.73791124  0.03684162     0.81920
O921        O  0.25651385  0.74825364  0.01713279    -0.54210
O922        O  0.28877693  0.77060130  0.05569531    -0.52660
O923        O  0.25055345  0.69191737  0.02622217    -0.52650
O924        O  0.29726599  0.72087993  0.04505363    -0.51830
O925        O  0.07968401  0.53524653  0.73428791    -0.53030
C926        C  0.04716645  0.55750005  0.70336939     0.79600
O927        O  0.09256517  0.53266590  0.68313665    -0.54190
C928        C  0.08551677  0.51831593  0.73599199     0.79570
C929        C  0.02618029  0.97784070  0.70489671     0.81960
Cd930      Cd  0.07147199  0.52854896  0.70730921     1.37470
O931        O  0.06223798  0.56212163  0.71435747    -0.53030
O932        O  0.02669341  0.99596198  0.71193795    -0.51840
C933        C  0.11177715  0.55515089  0.68560387     0.81920
O934        O  0.04678671  0.98287960  0.69838196    -0.54210
O935        O  0.04421929  0.54049541  0.69418905    -0.52660
O936        O  0.08824002  0.00848465  0.72429461    -0.52650
O937        O  0.11363215  0.56439835  0.69847844    -0.51830
O938        O  0.19448493  0.62022388  0.60451650    -0.53030
C939        C  0.22813823  0.59660586  0.63533977     0.79600
O940        O  0.23015894  0.67028021  0.64155913    -0.54190
C941        C  0.18904861  0.63756585  0.60361411     0.79570
C942        C  0.16331942  0.59821255  0.65289576     0.81960
Cd943      Cd  0.20385163  0.62553522  0.63147003     1.37470
O944        O  0.21375053  0.59255316  0.62406770    -0.53030
O945        O  0.16211035  0.58889335  0.64012021    -0.51840
C946        C  0.24991709  0.67557087  0.63397981     0.81920
O947        O  0.18196557  0.62102597  0.65535920    -0.54210
O948        O  0.23039043  0.61300680  0.64475763    -0.52660
O949        O  0.18708919  0.64692776  0.61573079    -0.52650
O950        O  0.24821070  0.65800192  0.62575271    -0.51830
O951        O  0.38391478  0.77175649  0.60519609    -0.53030
C952        C  0.32357645  0.73450470  0.63370970     0.79600
O953        O  0.39824684  0.73884937  0.64322047    -0.54190
C954        C  0.40713464  0.77748748  0.60458128     0.79570
C955        C  0.38832354  0.80256056  0.65341156     0.81960
Cd956      Cd  0.37880966  0.76278364  0.63221348     1.37460
O957        O  0.33511084  0.74926908  0.62268517    -0.53030
O958        O  0.38132635  0.80287364  0.64012392    -0.51840
C959        C  0.38264456  0.71826440  0.63619002     0.81920
O960        O  0.39366075  0.78561724  0.65658194    -0.54210
O961        O  0.33743524  0.73367090  0.64398039    -0.52660
O962        O  0.41858868  0.78005255  0.61688907    -0.52650
O963        O  0.36593363  0.71859783  0.62796582    -0.51820
O964        O  0.39120844  0.88097937  0.73337984    -0.53030
C965        C  0.45297232  0.91842712  0.70523126     0.79600
O966        O  0.38308707  0.86778368  0.68195845    -0.54190
C967        C  0.36791380  0.87510512  0.73355786     0.79570
C968        C  0.39460021  0.93540244  0.70224861     0.81960
Cd969      Cd  0.39770054  0.89047316  0.70637634     1.37470
O970        O  0.44119983  0.90370863  0.71623720    -0.53030
O971        O  0.41053744  0.93461369  0.71095261    -0.51840
C972        C  0.38849114  0.85088319  0.68511782     0.81920
O973        O  0.37946200  0.91511003  0.69485485    -0.54210
O974        O  0.43933076  0.91933639  0.69485276    -0.52660
O975        O  0.35716420  0.87285947  0.72103530    -0.52650
O976        O  0.39544803  0.85053778  0.69841256    -0.51820
O977        O  0.33685356  0.58519835  0.60590476    -0.53030
C978        C  0.36474854  0.64521044  0.63571807     0.79600
O979        O  0.29047322  0.56853121  0.64408113    -0.54190
C980        C  0.31906301  0.56152160  0.60554663     0.79570
C981        C  0.36401589  0.57872542  0.65353692     0.81960
Cd982      Cd  0.33472715  0.58996960  0.63306715     1.37460
O983        O  0.36746797  0.63432286  0.62446923    -0.53030
O984        O  0.37145253  0.58580255  0.64026036    -0.51840
C985        C  0.28498130  0.58307740  0.63695099     0.81920
O986        O  0.34201621  0.57457222  0.65703290    -0.54210
O987        O  0.34905627  0.63074389  0.64566363    -0.52660
O988        O  0.31090043  0.55010282  0.61795300    -0.52650
O989        O  0.30235785  0.60047394  0.62880691    -0.51820
O990        O  0.43547788  0.56809939  0.73230746    -0.53030
C991        C  0.41182287  0.50844197  0.70259686     0.79600
O992        O  0.43357446  0.57984908  0.68151998    -0.54190
C993        C  0.45274098  0.59191353  0.73299538     0.79570
C994        C  0.99055486  0.57144207  0.70218151     0.81960
Cd995      Cd  0.44027793  0.56368660  0.70542950     1.37460
O996        O  0.40869623  0.51892542  0.71389707    -0.53030
O997        O  0.47364544  0.55496208  0.71092962    -0.51840
C998        C  0.41083782  0.57408167  0.68455429     0.81920
O999        O  0.98453983  0.58498277  0.69440563    -0.54210
O1000       O  0.42719435  0.52327910  0.69264609    -0.52660
O1001       O  0.46224555  0.60350190  0.72077371    -0.52650
O1002       O  0.40259202  0.56562601  0.69754241    -0.51820
O1003       O  0.05956064  0.87316973  0.90356015    -0.53030
C1004       C  0.11713530  0.89316022  0.87219750     0.79600
O1005       O  0.03806093  0.82294188  0.86652512    -0.54190
C1006       C  0.03544839  0.85683257  0.90434595     0.79570
C1007       C  0.05321642  0.89883050  0.85639487     0.81960
Cd1008     Cd  0.06239271  0.86792936  0.87661994     1.37470
O1009       O  0.10837576  0.89770026  0.88381078    -0.53030
O1010       O  0.06230584  0.90672535  0.86934669    -0.51840
C1011       C  0.05080506  0.81612604  0.87448521     0.81920
O1012       O  0.04622295  0.87582442  0.85315030    -0.54210
O1013       O  0.10085076  0.87785352  0.86270182    -0.52660
O1014       O  0.52318537  0.84835850  0.89217721    -0.52650
O1015       O  0.06851692  0.83306620  0.88270871    -0.51820
O1016       O  0.04370169  0.97076103  0.77729964    -0.53030
C1017       C  0.98318422  0.94253341  0.80627351     0.79600
O1018       O  0.05385683  0.96818465  0.82852818    -0.54190
C1019       C  0.06747577  0.48827412  0.77688702     0.79570
C1020       C  0.04357616  0.52333491  0.80759115     0.81960
Cd1021     Cd  0.03850548  0.97429338  0.80417984     1.37470
O1022       O  0.99484468  0.94038471  0.79523842    -0.53030
O1023       O  0.02728388  0.50593416  0.79896904    -0.51840
C1024       C  0.04988884  0.94616944  0.82534621     0.81920
O1025       O  0.05813011  0.51838855  0.81517858    -0.54210
O1026       O  0.99693945  0.95867038  0.81624375    -0.52660
O1027       O  0.07876664  0.49737791  0.78925166    -0.52650
O1028       O  0.04308093  0.93832607  0.81210092    -0.51820
O1029       O  0.37358615  0.96249164  0.79124559    -0.53030
C1030       C  0.34922667  0.89048532  0.77319772     0.79600
O1031       O  0.38825287  0.90362837  0.81281485    -0.54190
C1032       C  0.38720262  0.97424787  0.80263534     0.79570
C1033       C  0.31990038  0.90661914  0.82093801     0.81960
Cd1034     Cd  0.36176460  0.91926178  0.80067324     1.37470
O1035       O  0.35337790  0.91313072  0.77355351    -0.53030
O1036       O  0.32020216  0.91427454  0.80774459    -0.51840
C1037       C  0.40840803  0.91953286  0.80555108     0.81920
O1038       O  0.33739871  0.90217619  0.82441242    -0.54210
O1039       O  0.34741413  0.87971038  0.78563781    -0.52660
O1040       O  0.38806663  0.96066547  0.81304522    -0.52650
O1041       O  0.40663290  0.93455185  0.79659084    -0.51820
O1042       O  0.21407842  0.85417605  0.88424487    -0.53030
C1043       C  0.24943677  0.92809304  0.89961142     0.79600
O1044       O  0.25227918  0.90941194  0.84832555    -0.54190
C1045       C  0.19863660  0.84217039  0.87353372     0.79570
C1046       C  0.18794405  0.90468494  0.86975625     0.81960
Cd1047     Cd  0.23048703  0.89730413  0.87305026     1.37460
O1048       O  0.24283096  0.90462045  0.89956039    -0.53030
O1049       O  0.18769425  0.88813061  0.87836443    -0.51840
C1050       C  0.26910413  0.90398828  0.85172267     0.81920
O1051       O  0.20813686  0.91837479  0.86197254    -0.54210
O1052       O  0.25064548  0.93841881  0.88710799    -0.52660
O1053       O  0.19902537  0.85539338  0.86251190    -0.52650
O1054       O  0.26937708  0.89743453  0.86510905    -0.51820
O1055       O  0.02927452  0.59214969  0.79620436    -0.53030
C1056       C  0.48167003  0.61031711  0.77425876     0.79600
O1057       O  0.44642284  0.56861253  0.81090205    -0.54190
C1058       C  0.02518312  0.57657869  0.80680127     0.79570
C1059       C  0.01444647  0.63578577  0.82578267     0.81960
Cd1060     Cd  0.49243845  0.59676549  0.80297775     1.37460
O1061       O  0.50014870  0.60671840  0.77614951    -0.53030
O1062       O  0.02486291  0.63955976  0.81309247    -0.51840
C1063       C  0.44355191  0.54891276  0.80429995     0.81920
O1064       O  0.49278527  0.61507242  0.82757695    -0.54210
O1065       O  0.47036319  0.61113055  0.78583959    -0.52660
O1066       O  0.50704655  0.57141684  0.81569249    -0.52650
O1067       O  0.46295744  0.55141952  0.79765126    -0.51820
O1068       O  0.05337053  0.74066622  0.88818046    -0.53030
C1069       C  0.09652910  0.71237736  0.90810031     0.79600
O1070       O  0.07795195  0.70471756  0.85680531    -0.54190
C1071       C  0.05842084  0.75543560  0.87699677     0.79570
C1072       C  0.13554393  0.77095045  0.87650256     0.81960
Cd1073     Cd  0.08404245  0.72756393  0.88045590     1.37470
O1074       O  0.08023473  0.71927961  0.90763354    -0.53030
O1075       O  0.11971650  0.77110560  0.88546270    -0.51840
C1076       C  0.05475068  0.68694125  0.85922617     0.81920
O1077       O  0.12779509  0.75053473  0.86900338    -0.54210
O1078       O  0.10434375  0.70914658  0.89575418    -0.52660
O1079       O  0.07411404  0.75635784  0.86750666    -0.52650
O1080       O  0.04548912  0.68666269  0.87188184    -0.51830
C1081       C  0.03943930  0.66839696  0.84787022    -0.08490
C1082       C  0.02729875  0.65369648  0.83782807    -0.10050
C1083       C  0.17993571  0.81496802  0.87417385    -0.08490
C1084       C  0.16087257  0.79357016  0.87483477    -0.10050
C1085       C  0.40267637  0.00188784  0.80348622    -0.08490
C1086       C  0.41965925  0.52434559  0.80429945    -0.10050
C1087       C  0.28669715  0.90449353  0.84079765    -0.08490
C1088       C  0.30129491  0.90446207  0.83169266    -0.10050
C1089       C  0.45546522  0.92866026  0.80712869    -0.08490
C1090       C  0.43283542  0.92152493  0.80727557    -0.10050
C1091       C  0.04437481  0.54716779  0.80868988    -0.08490
C1092       C  0.03880055  0.56338686  0.80815177    -0.10050
C1093       C  0.14424653  0.90331269  0.87019017    -0.08490
C1094       C  0.16564017  0.90689952  0.86906163    -0.10050
C1095       C  0.04863746  0.77217505  0.87546288    -0.08490
C1096       C  0.04637432  0.79058401  0.87429397    -0.10050
C1097       C  0.05192228  0.91569330  0.84564945    -0.08490
C1098       C  0.05179744  0.93013563  0.83643053    -0.10050
C1099       C  0.47213624  0.61039528  0.75952616    -0.08490
C1100       C  0.46275326  0.60441076  0.74716594    -0.10050
C1101       C  0.38037681  0.57661470  0.66434544    -0.08490
C1102       C  0.39461699  0.57604150  0.67357446    -0.10050
C1103       C  0.35536809  0.87391993  0.74742266    -0.08490
C1104       C  0.34943962  0.87883585  0.75925640    -0.10050
C1105       C  0.39997741  0.48095751  0.70142440    -0.08490
C1106       C  0.39466373  0.95890469  0.70096686    -0.10050
C1107       C  0.37732282  0.67278224  0.63683637    -0.08490
C1108       C  0.38286855  0.69490564  0.63735363    -0.10050
C1109       C  0.38889124  0.81988659  0.66456074    -0.08490
C1110       C  0.38800609  0.83361806  0.67395474    -0.10050
C1111       C  0.24313430  0.58490486  0.63698285    -0.08490
C1112       C  0.26040185  0.58081988  0.63786292    -0.10050
C1113       C  0.27379509  0.70008719  0.63466732    -0.08490
C1114       C  0.29597416  0.71785417  0.63426684    -0.10050
C1115       C  0.08017593  0.49896765  0.76287058    -0.08490
C1116       C  0.08601268  0.50870006  0.75060946    -0.10050
C1117       C  0.03223328  0.56929667  0.70184379    -0.08490
C1118       C  0.01507223  0.57356645  0.70117248    -0.10050
C1119       C  0.48059609  0.93501649  0.70479815    -0.08490
C1120       C  0.50269163  0.95295997  0.70436221    -0.10050
C1121       C  0.13010374  0.57002688  0.67409392    -0.08490
C1122       C  0.14490622  0.58310322  0.66431930    -0.10050
C1123       C  0.12007967  0.71670069  0.93354394    -0.08490
C1124       C  0.10791975  0.71129428  0.92200228    -0.10050
C1125       C  0.21695401  0.74500052  0.01127359    -0.08490
C1126       C  0.20162349  0.74548018  0.00287237    -0.10050
C1127       C  0.21909796  0.62751625  0.03398563    -0.08490
C1128       C  0.22393222  0.64935431  0.03467875    -0.10050
C1129       C  0.24810012  0.94727551  0.92540674    -0.08490
C1130       C  0.25233716  0.94128744  0.91342859    -0.10050
C1131       C  0.20990088  0.86503656  0.97453631    -0.08490
C1132       C  0.20305376  0.84255080  0.97481472    -0.10050
C1133       C  0.21983924  0.00700885  0.00625055    -0.08490
C1134       C  0.22163939  0.99352588  0.99718852    -0.10050
C1135       C  0.35665618  0.73590720  0.03748915    -0.08490
C1136       C  0.33933920  0.73989739  0.03630742    -0.10050
C1137       C  0.33112360  0.62357363  0.03693725    -0.08490
C1138       C  0.30888692  0.60599408  0.03690808    -0.10050
C1139       C  0.01751767  0.83511563  0.93036364    -0.08490
C1140       C  0.02329032  0.84612346  0.91846295    -0.10050
C1141       C  0.08505583  0.75988246  0.97868280    -0.08490
C1142       C  0.06907249  0.76571169  0.97745402    -0.10050
C1143       C  0.12724318  0.89649272  0.97261999    -0.08490
C1144       C  0.10456125  0.88048381  0.97384286    -0.10050
C1145       C  0.45844255  0.74806518  0.01185654    -0.08490
C1146       C  0.47304394  0.76310344  0.00264182    -0.10050
C1147       C  0.30688045  0.54904422  0.59167210    -0.08490
C1148       C  0.29546884  0.54286477  0.57985696    -0.10050
C1149       C  0.21232659  0.98017186  0.49599593    -0.08490
C1150       C  0.22593657  0.99508957  0.50561615    -0.10050
C1151       C  0.18812550  0.64814286  0.58939949    -0.08490
C1152       C  0.19345709  0.65875043  0.57737177    -0.10050
C1153       C  0.22405626  0.61062426  0.53116166    -0.08490
C1154       C  0.22829453  0.59349137  0.53213870    -0.10050
C1155       C  0.21338500  0.86435783  0.46920782    -0.08490
C1156       C  0.20928318  0.88159815  0.46837818    -0.10050
C1157       C  0.21902685  0.73036001  0.50480957    -0.08490
C1158       C  0.21829837  0.74476030  0.49581002    -0.10050
C1159       C  0.42339397  0.77227898  0.57852459    -0.08490
C1160       C  0.41872832  0.77802174  0.59048713    -0.10050
C1161       C  0.34382412  0.62521427  0.53395153    -0.08490
C1162       C  0.36140754  0.64743417  0.53457257    -0.10050
C1163       C  0.31577390  0.72797259  0.53164654    -0.08490
C1164       C  0.33800238  0.73375791  0.53137072    -0.10050
C1165       C  0.07678061  0.82914932  0.46599295    -0.08490
C1166       C  0.09439989  0.85136250  0.46647334    -0.10050
C1167       C  0.09951202  0.74172705  0.46873860    -0.08490
C1168       C  0.12166957  0.74728505  0.46838611    -0.10050
C1169       C  0.46262017  0.73901545  0.50552047    -0.08490
C1170       C  0.47603299  0.73763452  0.49615328    -0.10050
C1171       C  0.41684428  0.67323439  0.08305692    -0.08490
C1172       C  0.41185278  0.66158134  0.09472843    -0.10050
C1173       C  0.38386649  0.56931790  0.17399907    -0.08490
C1174       C  0.38378282  0.58456240  0.16540327    -0.10050
C1175       C  0.30274502  0.77486725  0.09382398    -0.08490
C1176       C  0.29167850  0.77015743  0.08195411    -0.10050
C1177       C  0.37020981  0.72007194  0.13979331    -0.08490
C1178       C  0.37534759  0.70357327  0.14074043    -0.10050
C1179       C  0.39475217  0.93181033  0.19977820    -0.08490
C1180       C  0.39020479  0.94870292  0.19861439    -0.10050
C1181       C  0.38796794  0.83233265  0.17486918    -0.08490
C1182       C  0.37327949  0.81723146  0.16572250    -0.10050
C1183       C  0.18315566  0.53836479  0.07901728    -0.08490
C1184       C  0.17806996  0.54234314  0.09130627    -0.10050
C1185       C  0.25484040  0.68690357  0.13833702    -0.08490
C1186       C  0.23805412  0.66443799  0.13756619    -0.10050
C1187       C  0.26535239  0.57959708  0.13854329    -0.08490
C1188       C  0.28774151  0.58593557  0.13840408    -0.10050
C1189       C  0.02602263  0.48508188  0.20068659    -0.08490
C1190       C  0.00885675  0.96270831  0.20043006    -0.10050
C1191       C  0.50183113  0.57182768  0.19849360    -0.08490
C1192       C  0.47959226  0.56592067  0.19903095    -0.10050
C1193       C  0.12544085  0.57463539  0.17212701    -0.08490
C1194       C  0.13895743  0.57255208  0.16323060    -0.10050
C1195       C  0.35648162  0.99213051  0.24438866    -0.08490
C1196       C  0.35134291  0.98033057  0.25601351    -0.10050
C1197       C  0.24471205  0.81589080  0.42322890    -0.08490
C1198       C  0.25017832  0.82655551  0.41122410    -0.10050
C1199       C  0.29490847  0.89447335  0.33757956    -0.08490
C1200       C  0.30976353  0.90864944  0.32816014    -0.10050
C1201       C  0.47301069  0.87970975  0.25708017    -0.08490
C1202       C  0.46145884  0.87491986  0.24537668    -0.10050
C1203       C  0.42660541  0.91131198  0.30231564    -0.08490
C1204       C  0.40928157  0.91529355  0.30124674    -0.10050
C1205       C  0.13525452  0.93110011  0.40909418    -0.08490
C1206       C  0.14596408  0.93653537  0.42111139    -0.10050
C1207       C  0.18078642  0.89731746  0.36249759    -0.08490
C1208       C  0.19748913  0.89243552  0.36345762    -0.10050
C1209       C  0.04734376  0.90652356  0.32855008    -0.08490
C1210       C  0.06207149  0.90580228  0.33731782    -0.10050
C1211       C  0.01297351  0.70506586  0.42246526    -0.08490
C1212       C  0.01795443  0.70016190  0.41037005    -0.10050
C1213       C  0.16458920  0.77683445  0.36550575    -0.08490
C1214       C  0.14214129  0.75978655  0.36606535    -0.10050
C1215       C  0.05684305  0.78623280  0.36317739    -0.08490
C1216       C  0.06300372  0.80852833  0.36344212    -0.10050
C1217       C  0.08614975  0.61447600  0.25624348    -0.08490
C1218       C  0.09094323  0.61008149  0.24398309    -0.10050
C1219       C  0.43853390  0.52884000  0.30016422    -0.08490
C1220       C  0.46077543  0.54637598  0.29966486    -0.10050
C1221       C  0.04910570  0.52475686  0.30163773    -0.08490
C1222       C  0.04366109  0.00267786  0.30142180    -0.10050
C1223       C  0.05100437  0.64716168  0.32875732    -0.08490
C1224       C  0.04942762  0.66064713  0.33792813    -0.10050
O1225       O  0.54935825  0.10286421  0.27045802    -0.53030
C1226       C  0.48832430  0.06284639  0.29878837     0.79600
O1227       O  0.56229626  0.06770047  0.30842174    -0.54190
C1228       C  0.57323440  0.11088813  0.27020454     0.79570
C1229       C  0.55127156  0.13031127  0.31776458     0.81960
Cd1230     Cd  0.54340582  0.09156649  0.29692015     1.37470
O1231       O  0.49951041  0.07660909  0.28737543    -0.53030
O1232       O  0.54360535  0.12999556  0.30457736    -0.51840
C1233       C  0.54867241  0.04794691  0.30030520     0.81920
O1234       O  0.55801795  0.11443350  0.32097991    -0.54210
O1235       O  0.50246063  0.06291670  0.30919400    -0.52660
O1236       O  0.58427131  0.11290471  0.28259191    -0.52650
O1237       O  0.53351196  0.04882338  0.29099370    -0.51830
O1238       O  0.60305719  0.23075931  0.37848503    -0.53030
C1239       C  0.53039069  0.20205769  0.39640951     0.79600
O1240       O  0.54140582  0.24234052  0.35740189    -0.54190
C1241       C  0.61451923  0.24432002  0.36705413     0.79570
C1242       C  0.54966722  0.17793946  0.34879686     0.81960
Cd1243     Cd  0.55951327  0.21794871  0.36920756     1.37470
O1244       O  0.55404729  0.20921236  0.39608287    -0.53030
O1245       O  0.55683897  0.17799135  0.36207806    -0.51840
C1246       C  0.55645947  0.26265658  0.36478714     0.81920
O1247       O  0.54408184  0.19459983  0.34534120    -0.54210
O1248       O  0.51913398  0.19917247  0.38399115    -0.52660
O1249       O  0.60066518  0.24509003  0.35675977    -0.52650
O1250       O  0.57214155  0.26188878  0.37372419    -0.51820
O1251       O  0.60548447  0.39544596  0.39455814    -0.53030
C1252       C  0.57632805  0.33610409  0.36458779     0.79600
O1253       O  0.60047569  0.40735255  0.34388853    -0.54190
C1254       C  0.62349648  0.41901592  0.39508983     0.79570
C1255       C  0.65669899  0.39607420  0.36345501     0.81960
Cd1256     Cd  0.60782552  0.39107296  0.36747642     1.37460
O1257       O  0.57473053  0.34716618  0.37610863    -0.53030
O1258       O  0.63908647  0.37912100  0.37168028    -0.51840
C1259       C  0.57866040  0.40333458  0.34773278     0.81920
O1260       O  0.65187905  0.41111305  0.35631450    -0.54210
O1261       O  0.59163861  0.35033314  0.35443156    -0.52660
O1262       O  0.63216104  0.43062927  0.38277566    -0.52650
O1263       O  0.57152637  0.39600885  0.36101015    -0.51830
O1264       O  0.00359502  0.41518653  0.27134315    -0.53030
C1265       C  0.53109238  0.47512696  0.30056946     0.79600
O1266       O  0.95651881  0.39908115  0.30912921    -0.54190
C1267       C  0.98535507  0.39169572  0.27095186     0.79570
C1268       C  0.53058126  0.40871414  0.31813540     0.81960
Cd1269     Cd  0.00086378  0.42003733  0.29824975     1.37460
O1270       O  0.53305030  0.46397927  0.28920417    -0.53030
O1271       O  0.53737878  0.41544752  0.30475049    -0.51840
C1272       C  0.95117896  0.41348984  0.30170770     0.81920
O1273       O  0.00890542  0.40495636  0.32206779    -0.54210
O1274       O  0.51609270  0.46094407  0.31085020    -0.52660
O1275       O  0.97671034  0.38024884  0.28330761    -0.52650
O1276       O  0.96870097  0.43066312  0.29353438    -0.51820
O1277       O  0.74381303  0.35468018  0.39635454    -0.53030
C1278       C  0.71185669  0.38010289  0.36528711     0.79600
O1279       O  0.75800455  0.35575595  0.34580562    -0.54190
C1280       C  0.74938659  0.33742468  0.39709873     0.79570
C1281       C  0.68876827  0.30096898  0.36637470     0.81960
Cd1282     Cd  0.73518757  0.35035507  0.36938283     1.37460
O1283       O  0.72544285  0.38335910  0.37683224    -0.53030
O1284       O  0.69079561  0.31844211  0.37481793    -0.51840
C1285       C  0.77634042  0.37854837  0.34868956     0.81920
O1286       O  0.70845355  0.30603886  0.35878329    -0.54210
O1287       O  0.70984068  0.36398010  0.35573574    -0.52660
O1288       O  0.75165106  0.32846096  0.38490267    -0.52650
O1289       O  0.77700998  0.38722816  0.36158177    -0.51830
O1290       O  0.88024927  0.42329439  0.28815592    -0.53030
C1291       C  0.85282091  0.46861747  0.26964403     0.79600
O1292       O  0.84595941  0.44803420  0.32005508    -0.54190
C1293       C  0.89397530  0.42667453  0.29966485     0.79570
C1294       C  0.91459456  0.00449581  0.29926605     0.81960
Cd1295     Cd  0.86873818  0.45474833  0.29634191     1.37470
O1296       O  0.85866584  0.45152349  0.26952905    -0.53030
O1297       O  0.91230968  0.98784138  0.29004103    -0.51840
C1298       C  0.82814691  0.42503923  0.31709330     0.81920
O1299       O  0.89542914  0.99841109  0.30763439    -0.54210
O1300       O  0.85101927  0.47679728  0.28223757    -0.52660
O1301       O  0.89521251  0.44207472  0.30947620    -0.52650
O1302       O  0.82775122  0.41669410  0.30413604    -0.51830
O1303       O  0.58014891  0.07356551  0.22977873    -0.53030
C1304       C  0.54190125  0.01262632  0.20148742     0.79600
O1305       O  0.54510973  0.08592143  0.19177963    -0.54190
C1306       C  0.58789584  0.09733263  0.23002387     0.79570
C1307       C  0.60855024  0.07536163  0.18287235     0.81960
Cd1308     Cd  0.56945880  0.06752562  0.20328158     1.37460
O1309       O  0.55538358  0.02412325  0.21295292    -0.53030
O1310       O  0.60848240  0.06857351  0.19623191    -0.51840
C1311       C  0.52525468  0.07176485  0.19972083     0.81920
O1312       O  0.59234199  0.08152675  0.17927352    -0.54210
O1313       O  0.54165464  0.02640139  0.19098323    -0.52660
O1314       O  0.59012266  0.10835643  0.21761567    -0.52650
O1315       O  0.52627750  0.05647722  0.20883214    -0.51820
O1316       O  0.71047238  0.12612967  0.12418470    -0.53030
C1317       C  0.68044585  0.05430799  0.10546414     0.79600
O1318       O  0.72140155  0.06406871  0.14438121    -0.54190
C1319       C  0.72293700  0.13696203  0.13604813     0.79570
C1320       C  0.65639658  0.07247621  0.15263355     0.81960
Cd1321     Cd  0.69695466  0.08236133  0.13287539     1.37460
O1322       O  0.68829920  0.07807768  0.10612756    -0.53030
O1323       O  0.65710740  0.08003443  0.13938491    -0.51840
C1324       C  0.74169033  0.07913966  0.13698191     0.81920
O1325       O  0.67260293  0.06635040  0.15632002    -0.54210
O1326       O  0.67735826  0.04250533  0.11768773    -0.52660
O1327       O  0.72294888  0.12265423  0.14629467    -0.52650
O1328       O  0.74084870  0.09483970  0.12812538    -0.51830
O1329       O  0.90435091  0.40460047  0.21353665    -0.53030
C1330       C  0.94981709  0.37684990  0.23184184     0.79600
O1331       O  0.92793086  0.36850696  0.18221760    -0.54190
C1332       C  0.90664065  0.41703496  0.20163308     0.79570
C1333       C  0.98480144  0.43861338  0.20175717     0.81960
Cd1334     Cd  0.93545391  0.39267438  0.20536070     1.37460
O1335       O  0.93301954  0.38311316  0.23213545    -0.53030
O1336       O  0.96868395  0.43619915  0.21143008    -0.51840
C1337       C  0.90490680  0.35117662  0.18553934     0.81920
O1338       O  0.97840008  0.41946155  0.19331944    -0.54210
O1339       O  0.95770199  0.37491865  0.21917963    -0.52660
O1340       O  0.92140796  0.41749301  0.19164428    -0.52650
O1341       O  0.89698702  0.35171995  0.19846499    -0.51830
O1342       O  0.83112747  0.26728345  0.10760929    -0.53030
C1343       C  0.85772994  0.23431269  0.13806868     0.79600
O1344       O  0.83406229  0.28053213  0.15792199    -0.54190
C1345       C  0.81399969  0.27310521  0.10757125     0.79570
C1346       C  0.77878181  0.21117481  0.13742172     0.81960
Cd1347     Cd  0.82786307  0.25759521  0.13440010     1.37460
O1348       O  0.86031192  0.24737569  0.12640474    -0.53030
O1349       O  0.79565714  0.21384405  0.12823810    -0.51840
C1350       C  0.85688712  0.29859211  0.15480978     0.81920
O1351       O  0.78430523  0.23026541  0.14570562    -0.54210
O1352       O  0.84217364  0.23273898  0.14788747    -0.52660
O1353       O  0.80550680  0.27478544  0.12008524    -0.52650
O1354       O  0.86518785  0.29897342  0.14185098    -0.51820
O1355       O  0.87619820  0.13017635  0.10855640    -0.53030
C1356       C  0.81540839  0.09952589  0.13759890     0.79600
O1357       O  0.88576079  0.12324104  0.15922088    -0.54190
C1358       C  0.89959695  0.14871038  0.10844829     0.79570
C1359       C  0.87453507  0.17974457  0.13973538     0.81960
Cd1360     Cd  0.87049548  0.13145587  0.13551859     1.37470
O1361       O  0.82699413  0.09851328  0.12615612    -0.53030
O1362       O  0.85811343  0.16228699  0.13119672    -0.51840
C1363       C  0.88202145  0.10167898  0.15510539     0.81920
O1364       O  0.88942848  0.17499884  0.14713739    -0.54210
O1365       O  0.82918666  0.11448563  0.14801880    -0.52660
O1366       O  0.91068246  0.15700805  0.12095141    -0.52650
O1367       O  0.87553467  0.09522786  0.14164716    -0.51830
O1368       O  0.89220360  0.02314146  0.23041784    -0.53030
C1369       C  0.95201710  0.05278448  0.20034190     0.79600
O1370       O  0.87697723  0.47790232  0.19204763    -0.54190
C1371       C  0.86862860  0.50499480  0.23064733     0.79570
C1372       C  0.88560379  0.05203291  0.18417006     0.81960
Cd1373     Cd  0.89705167  0.02178527  0.20336436     1.37460
O1374       O  0.94121145  0.05430784  0.21201343    -0.53030
O1375       O  0.89267731  0.05851266  0.19756297    -0.51840
C1376       C  0.89177439  0.47292337  0.19937412     0.81920
O1377       O  0.88125269  0.03026584  0.17998036    -0.54210
O1378       O  0.93753102  0.03772141  0.19014867    -0.52660
O1379       O  0.85716886  0.49702318  0.21821181    -0.52650
O1380       O  0.90874928  0.49046502  0.20764962    -0.51820
O1381       O  0.54570728  0.29008364  0.45421208    -0.53030
C1382       C  0.51500483  0.21734987  0.43650785     0.79600
O1383       O  0.55592027  0.22729050  0.47495647    -0.54190
C1384       C  0.56032492  0.30158408  0.46531628     0.79570
C1385       C  0.99294082  0.23771354  0.48496994     0.81960
Cd1386     Cd  0.53198812  0.24645970  0.46373925     1.37460
O1387       O  0.52186967  0.24087788  0.43696412    -0.53030
O1388       O  0.99254349  0.24473995  0.47171552    -0.51840
C1389       C  0.57618606  0.24201581  0.46745276     0.81920
O1390       O  0.00961720  0.23195479  0.48807947    -0.54210
O1391       O  0.51268798  0.20614526  0.44885673    -0.52660
O1392       O  0.56114356  0.28774309  0.47557771    -0.52650
O1393       O  0.57562435  0.25801846  0.45872715    -0.51830
O1394       O  0.89209415  0.18629919  0.54671794    -0.53030
C1395       C  0.92173662  0.25964372  0.56462555     0.79600
O1396       O  0.92922332  0.24514644  0.51336329    -0.54190
C1397       C  0.87778300  0.17499303  0.53546905     0.79570
C1398       C  0.86146188  0.23380737  0.53296013     0.81960
Cd1399     Cd  0.90590693  0.23009932  0.53739413     1.37460
O1400       O  0.91497642  0.23612417  0.56439451    -0.53030
O1401       O  0.86209401  0.21816835  0.54196195    -0.51840
C1402       C  0.94554065  0.23895283  0.51657928     0.81920
O1403       O  0.88179318  0.24850608  0.52549675    -0.54210
O1404       O  0.92448480  0.27060606  0.55213507    -0.52660
O1405       O  0.87716521  0.18901401  0.52525419    -0.52650
O1406       O  0.94538866  0.23149814  0.52980248    -0.51820
O1407       O  0.66025151  0.25758684  0.45604442    -0.53030
C1408       C  0.73253349  0.30452670  0.43724802     0.79600
O1409       O  0.72582310  0.33450713  0.47561628    -0.54190
C1410       C  0.64927269  0.25993295  0.46736772     0.79570
C1411       C  0.71601568  0.26109940  0.48512629     0.81960
Cd1412     Cd  0.70450138  0.29015245  0.46478188     1.37470
O1413       O  0.70882375  0.28682982  0.43779443    -0.53030
O1414       O  0.70886264  0.25370075  0.47184943    -0.51840
C1415       C  0.71127159  0.33987040  0.46835706     0.81920
O1416       O  0.72009778  0.28300804  0.48871524    -0.54210
O1417       O  0.74419997  0.31336403  0.44954626    -0.52660
O1418       O  0.66366640  0.27535369  0.47745659    -0.52650
O1419       O  0.69397722  0.32242858  0.46017104    -0.51830
O1420       O  0.72914928  0.18786990  0.56268016    -0.53030
C1421       C  0.78817602  0.21518119  0.53276762     0.79600
O1422       O  0.71140912  0.14036818  0.52486956    -0.54190
C1423       C  0.70542778  0.17022603  0.56331791     0.79570
C1424       C  0.72132840  0.21395768  0.51543637     0.81960
Cd1425     Cd  0.73301053  0.18482491  0.53560812     1.37470
O1426       O  0.77729515  0.21756211  0.54412846    -0.53030
O1427       O  0.72855532  0.22129184  0.52871414    -0.51840
C1428       C  0.72622902  0.13514194  0.53194264     0.81920
O1429       O  0.71720412  0.19205669  0.51178573    -0.54210
O1430       O  0.77370686  0.19961405  0.52275205    -0.52660
O1431       O  0.69353738  0.16158291  0.55105838    -0.52650
O1432       O  0.74382420  0.15273251  0.53991638    -0.51830
O1433       O  0.70166217  0.41107324  0.45561127    -0.53030
C1434       C  0.65663601  0.43576600  0.43534035     0.79600
O1435       O  0.62410150  0.39505035  0.47328722    -0.54190
C1436       C  0.69768157  0.39670280  0.46685500     0.79570
C1437       C  0.69682514  0.46177392  0.48462067     0.81960
Cd1438     Cd  0.66892749  0.42123324  0.46321251     1.37470
O1439       O  0.67414885  0.43054003  0.43626271    -0.53030
O1440       O  0.70584351  0.46288446  0.47176851    -0.51840
C1441       C  0.61888768  0.37525016  0.46578856     0.81920
O1442       O  0.67398556  0.44324051  0.48718878    -0.54210
O1443       O  0.64720661  0.43765740  0.44744961    -0.52660
O1444       O  0.68145541  0.39459904  0.47636382    -0.52650
O1445       O  0.63651943  0.37691164  0.45763128    -0.51830
O1446       O  0.76599859  0.04733332  0.56493646    -0.53030
C1447       C  0.74024265  0.07873651  0.53384355     0.79600
O1448       O  0.81437453  0.08128388  0.52745531    -0.54190
C1449       C  0.78376392  0.04243981  0.56574850     0.79570
C1450       C  0.74161671  0.01376132  0.51683424     0.81960
Cd1451     Cd  0.76972005  0.05504151  0.53777771     1.37460
O1452       O  0.73654172  0.06469729  0.54521652    -0.53030
O1453       O  0.73291222  0.01283606  0.52976030    -0.51840
C1454       C  0.81937990  0.10128241  0.53467330     0.81920
O1455       O  0.76429139  0.03240439  0.51402245    -0.54210
O1456       O  0.75654071  0.08089778  0.52436867    -0.52660
O1457       O  0.79247952  0.03977554  0.55356735    -0.52650
O1458       O  0.80163142  0.09973509  0.54266753    -0.51830
O1459       O  0.54208591  0.27563458  0.96365262    -0.53030
C1460       C  0.51799610  0.32328399  0.94418510     0.79600
O1461       O  0.50933332  0.30260111  0.99467509    -0.54190
C1462       C  0.55523075  0.27854246  0.97536494     0.79570
C1463       C  0.57979989  0.35697902  0.97342043     0.81960
Cd1464     Cd  0.53237450  0.30864204  0.97113195     1.37460
O1465       O  0.52254585  0.30526167  0.94435620    -0.53030
O1466       O  0.57621630  0.33943398  0.96449604    -0.51840
C1467       C  0.99133312  0.27970907  0.99161017     0.81920
O1468       O  0.56117694  0.35248257  0.98187379    -0.54210
O1469       O  0.51659111  0.33211990  0.95664991    -0.52660
O1470       O  0.55716453  0.29461807  0.98492613    -0.52650
O1471       O  0.99081922  0.27146392  0.97860760    -0.51820
O1472       O  0.88565120  0.22823754  0.05090793    -0.53030
C1473       C  0.91511174  0.18477064  0.06941532     0.79600
O1474       O  0.87439959  0.15528250  0.03045426    -0.54190
C1475       C  0.87238494  0.22499117  0.03920611     0.79570
C1476       C  0.94017340  0.23049120  0.02259778     0.81960
Cd1477     Cd  0.89920129  0.19840910  0.04259464     1.37460
O1478       O  0.90816414  0.20102425  0.06950662    -0.53030
O1479       O  0.93948761  0.23794060  0.03563726    -0.51840
C1480       C  0.85465360  0.14811170  0.03853004     0.81920
O1481       O  0.92344944  0.20729680  0.01924131    -0.54210
O1482       O  0.91787030  0.17726755  0.05682070    -0.52660
O1483       O  0.87213948  0.21025795  0.02927338    -0.52650
O1484       O  0.85588820  0.16390137  0.04805164    -0.51830
O1485       O  0.71288339  0.43971037  0.94005427    -0.53030
C1486       C  0.65471548  0.41036366  0.97076777     0.79600
O1487       O  0.72698798  0.40960604  0.97918015    -0.54190
C1488       C  0.73652977  0.44688099  0.93942953     0.79570
C1489       C  0.72107737  0.47571191  0.98660805     0.81960
Cd1490     Cd  0.70918436  0.43406935  0.96717494     1.37470
O1491       O  0.66560675  0.42276400  0.95891079    -0.53030
O1492       O  0.71374543  0.47519282  0.97330811    -0.51840
C1493       C  0.71088860  0.38883833  0.97247992     0.81920
O1494       O  0.72624999  0.45888257  0.99040771    -0.54210
O1495       O  0.66888294  0.40926772  0.98072935    -0.52660
O1496       O  0.74859615  0.45123115  0.95169239    -0.52650
O1497       O  0.69473144  0.38938553  0.96384012    -0.51820
O1498       O  0.72020817  0.05064587  0.06491500    -0.53030
C1499       C  0.78128929  0.08974557  0.03732089     0.79600
O1500       O  0.71331598  0.04009238  0.01390401    -0.54190
C1501       C  0.69622843  0.04214114  0.06509431     0.79570
C1502       C  0.72025756  0.10471284  0.03505100     0.81960
Cd1503     Cd  0.72616614  0.06150932  0.03841538     1.37460
O1504       O  0.76948987  0.07541689  0.04844025    -0.53030
O1505       O  0.73642373  0.10449335  0.04383446    -0.51840
C1506       C  0.71903815  0.02350159  0.01727118     0.81920
O1507       O  0.70611040  0.08458192  0.02731892    -0.54210
O1508       O  0.76772890  0.09050654  0.02683695    -0.52660
O1509       O  0.68516589  0.03969380  0.05265896    -0.52650
O1510       O  0.72517528  0.02273251  0.03068142    -0.51820
O1511       O  0.68859618  0.30239424  0.96320177    -0.53030
C1512       C  0.63426855  0.22937096  0.94693024     0.79600
O1513       O  0.66351332  0.24520223  0.99717126    -0.54190
C1514       C  0.68868400  0.31487983  0.97450752     0.79570
C1515       C  0.60821693  0.25932671  0.97779300     0.81960
Cd1516     Cd  0.65486082  0.26002450  0.97337405     1.37470
O1517       O  0.65393861  0.25214509  0.94646767    -0.53030
O1518       O  0.62585309  0.27469366  0.96899623    -0.51840
C1519       C  0.68444659  0.24767627  0.99276414     0.81920
O1520       O  0.61212984  0.24411449  0.98546969    -0.54210
O1521       O  0.62627373  0.21939330  0.95969701    -0.52660
O1522       O  0.67403641  0.30204776  0.98524023    -0.52650
O1523       O  0.69024923  0.25327065  0.97916146    -0.51820
O1524       O  0.73379807  0.18669892  0.04817854    -0.53030
C1525       C  0.77990064  0.25860108  0.06788780     0.79600
O1526       O  0.80959491  0.25233786  0.02933446    -0.54190
C1527       C  0.73589318  0.17672221  0.03630441     0.79570
C1528       C  0.73432930  0.24290715  0.02126534     0.81960
Cd1529     Cd  0.76514888  0.23146739  0.04016727     1.37470
O1530       O  0.76187165  0.23504489  0.06715735    -0.53030
O1531       O  0.72755942  0.23461459  0.03444404    -0.51840
C1532       C  0.81483364  0.23791123  0.03684162     0.81920
O1533       O  0.75651385  0.24825364  0.01713279    -0.54210
O1534       O  0.78877694  0.27060130  0.05569531    -0.52660
O1535       O  0.75055344  0.19191737  0.02622217    -0.52650
O1536       O  0.79726598  0.22087992  0.04505363    -0.51830
O1537       O  0.57968401  0.03524652  0.73428791    -0.53030
C1538       C  0.54716645  0.05750004  0.70336939     0.79600
O1539       O  0.59256516  0.03266589  0.68313664    -0.54190
C1540       C  0.58551677  0.01831592  0.73599199     0.79570
C1541       C  0.52618028  0.47784071  0.70489672     0.81960
Cd1542     Cd  0.57147199  0.02854895  0.70730920     1.37470
O1543       O  0.56223798  0.06212163  0.71435746    -0.53030
O1544       O  0.52669341  0.49596199  0.71193795    -0.51840
C1545       C  0.61177714  0.05515088  0.68560387     0.81920
O1546       O  0.54678670  0.48287961  0.69838196    -0.54210
O1547       O  0.54421928  0.04049541  0.69418905    -0.52660
O1548       O  0.58824002  0.50848466  0.72429461    -0.52650
O1549       O  0.61363215  0.06439835  0.69847844    -0.51830
O1550       O  0.69448494  0.12022389  0.60451651    -0.53030
C1551       C  0.72813823  0.09660587  0.63533977     0.79600
O1552       O  0.73015894  0.17028021  0.64155913    -0.54190
C1553       C  0.68904861  0.13756585  0.60361411     0.79570
C1554       C  0.66331942  0.09821255  0.65289576     0.81960
Cd1555     Cd  0.70385163  0.12553522  0.63147003     1.37470
O1556       O  0.71375053  0.09255316  0.62406770    -0.53030
O1557       O  0.66211035  0.08889335  0.64012021    -0.51840
C1558       C  0.74991709  0.17557088  0.63397982     0.81920
O1559       O  0.68196556  0.12102597  0.65535920    -0.54210
O1560       O  0.73039043  0.11300680  0.64475763    -0.52660
O1561       O  0.68708919  0.14692777  0.61573079    -0.52650
O1562       O  0.74821070  0.15800192  0.62575271    -0.51830
O1563       O  0.88391478  0.27175649  0.60519609    -0.53030
C1564       C  0.82357645  0.23450470  0.63370971     0.79600
O1565       O  0.89824684  0.23884938  0.64322047    -0.54190
C1566       C  0.90713464  0.27748748  0.60458128     0.79570
C1567       C  0.88832354  0.30256056  0.65341156     0.81960
Cd1568     Cd  0.87880966  0.26278364  0.63221348     1.37460
O1569       O  0.83511084  0.24926908  0.62268517    -0.53030
O1570       O  0.88132635  0.30287365  0.64012392    -0.51840
C1571       C  0.88264456  0.21826440  0.63619002     0.81920
O1572       O  0.89366075  0.28561724  0.65658194    -0.54210
O1573       O  0.83743524  0.23367090  0.64398039    -0.52660
O1574       O  0.91858868  0.28005255  0.61688907    -0.52650
O1575       O  0.86593362  0.21859783  0.62796583    -0.51820
O1576       O  0.89120845  0.38097937  0.73337984    -0.53030
C1577       C  0.95297232  0.41842713  0.70523126     0.79600
O1578       O  0.88308708  0.36778369  0.68195845    -0.54190
C1579       C  0.86791380  0.37510513  0.73355786     0.79570
C1580       C  0.89460021  0.43540245  0.70224861     0.81960
Cd1581     Cd  0.89770054  0.39047317  0.70637634     1.37470
O1582       O  0.94119983  0.40370863  0.71623720    -0.53030
O1583       O  0.91053744  0.43461370  0.71095261    -0.51840
C1584       C  0.88849115  0.35088320  0.68511782     0.81920
O1585       O  0.87946201  0.41511004  0.69485485    -0.54210
O1586       O  0.93933076  0.41933640  0.69485276    -0.52660
O1587       O  0.85716421  0.37285947  0.72103530    -0.52650
O1588       O  0.89544803  0.35053779  0.69841256    -0.51820
O1589       O  0.83685356  0.08519836  0.60590476    -0.53030
C1590       C  0.86474854  0.14521044  0.63571807     0.79600
O1591       O  0.79047322  0.06853121  0.64408113    -0.54190
C1592       C  0.81906301  0.06152161  0.60554663     0.79570
C1593       C  0.86401589  0.07872542  0.65353692     0.81960
Cd1594     Cd  0.83472715  0.08996960  0.63306715     1.37460
O1595       O  0.86746797  0.13432286  0.62446923    -0.53030
O1596       O  0.87145253  0.08580255  0.64026036    -0.51840
C1597       C  0.78498130  0.08307741  0.63695099     0.81920
O1598       O  0.84201621  0.07457222  0.65703289    -0.54210
O1599       O  0.84905627  0.13074389  0.64566363    -0.52660
O1600       O  0.81090043  0.05010282  0.61795300    -0.52650
O1601       O  0.80235785  0.10047394  0.62880691    -0.51820
O1602       O  0.93547788  0.06809938  0.73230746    -0.53030
C1603       C  0.91182287  0.00844196  0.70259686     0.79600
O1604       O  0.93357446  0.07984907  0.68151998    -0.54190
C1605       C  0.95274098  0.09191352  0.73299538     0.79570
C1606       C  0.49055485  0.07144207  0.70218151     0.81960
Cd1607     Cd  0.94027793  0.06368659  0.70542950     1.37460
O1608       O  0.90869623  0.01892541  0.71389707    -0.53030
O1609       O  0.97364544  0.05496207  0.71092962    -0.51840
C1610       C  0.91083782  0.07408167  0.68455429     0.81920
O1611       O  0.48453982  0.08498276  0.69440563    -0.54210
O1612       O  0.92719435  0.02327909  0.69264609    -0.52660
O1613       O  0.96224555  0.10350189  0.72077371    -0.52650
O1614       O  0.90259201  0.06562600  0.69754241    -0.51820
O1615       O  0.55956063  0.37316973  0.90356015    -0.53030
C1616       C  0.61713529  0.39316021  0.87219750     0.79600
O1617       O  0.53806092  0.32294187  0.86652512    -0.54190
C1618       C  0.53544839  0.35683256  0.90434595     0.79570
C1619       C  0.55321641  0.39883050  0.85639487     0.81960
Cd1620     Cd  0.56239270  0.36792936  0.87661994     1.37470
O1621       O  0.60837575  0.39770026  0.88381078    -0.53030
O1622       O  0.56230583  0.40672534  0.86934669    -0.51840
C1623       C  0.55080504  0.31612603  0.87448521     0.81920
O1624       O  0.54622294  0.37582441  0.85315030    -0.54210
O1625       O  0.60085075  0.37785351  0.86270182    -0.52660
O1626       O  0.02318537  0.34835849  0.89217721    -0.52650
O1627       O  0.56851691  0.33306619  0.88270871    -0.51820
O1628       O  0.54370168  0.47076103  0.77729964    -0.53030
C1629       C  0.48318421  0.44253341  0.80627351     0.79600
O1630       O  0.55385682  0.46818464  0.82852819    -0.54190
C1631       C  0.56747577  0.98827412  0.77688702     0.79570
C1632       C  0.54357616  0.02333491  0.80759115     0.81960
Cd1633     Cd  0.53850547  0.47429338  0.80417984     1.37470
O1634       O  0.49484467  0.44038471  0.79523841    -0.53030
O1635       O  0.52728388  0.00593417  0.79896904    -0.51840
C1636       C  0.54988884  0.44616944  0.82534621     0.81920
O1637       O  0.55813012  0.01838855  0.81517857    -0.54210
O1638       O  0.49693944  0.45867037  0.81624375    -0.52660
O1639       O  0.57876664  0.99737791  0.78925165    -0.52650
O1640       O  0.54308093  0.43832607  0.81210092    -0.51820
O1641       O  0.87358615  0.46249164  0.79124559    -0.53030
C1642       C  0.84922667  0.39048532  0.77319772     0.79600
O1643       O  0.88825287  0.40362838  0.81281485    -0.54190
C1644       C  0.88720262  0.47424787  0.80263534     0.79570
C1645       C  0.81990038  0.40661914  0.82093801     0.81960
Cd1646     Cd  0.86176460  0.41926178  0.80067324     1.37470
O1647       O  0.85337790  0.41313073  0.77355351    -0.53030
O1648       O  0.82020216  0.41427455  0.80774459    -0.51840
C1649       C  0.90840803  0.41953287  0.80555108     0.81920
O1650       O  0.83739871  0.40217619  0.82441242    -0.54210
O1651       O  0.84741412  0.37971038  0.78563781    -0.52660
O1652       O  0.88806663  0.46066547  0.81304522    -0.52650
O1653       O  0.90663290  0.43455185  0.79659084    -0.51820
O1654       O  0.71407841  0.35417606  0.88424487    -0.53030
C1655       C  0.74943677  0.42809305  0.89961141     0.79600
O1656       O  0.75227918  0.40941195  0.84832555    -0.54190
C1657       C  0.69863659  0.34217039  0.87353372     0.79570
C1658       C  0.68794404  0.40468493  0.86975625     0.81960
Cd1659     Cd  0.73048703  0.39730414  0.87305025     1.37460
O1660       O  0.74283096  0.40462046  0.89956039    -0.53030
O1661       O  0.68769425  0.38813062  0.87836444    -0.51840
C1662       C  0.76910412  0.40398828  0.85172267     0.81920
O1663       O  0.70813685  0.41837478  0.86197254    -0.54210
O1664       O  0.75064548  0.43841882  0.88710799    -0.52660
O1665       O  0.69902536  0.35539338  0.86251190    -0.52650
O1666       O  0.76937707  0.39743453  0.86510904    -0.51820
O1667       O  0.52927452  0.09214969  0.79620436    -0.53030
C1668       C  0.98167003  0.11031711  0.77425876     0.79600
O1669       O  0.94642285  0.06861253  0.81090205    -0.54190
C1670       C  0.52518312  0.07657869  0.80680127     0.79570
C1671       C  0.51444646  0.13578577  0.82578267     0.81960
Cd1672     Cd  0.99243845  0.09676549  0.80297775     1.37460
O1673       O  0.00014871  0.10671840  0.77614951    -0.53030
O1674       O  0.52486290  0.13955976  0.81309247    -0.51840
C1675       C  0.94355191  0.04891276  0.80429995     0.81920
O1676       O  0.99278527  0.11507242  0.82757695    -0.54210
O1677       O  0.97036319  0.11113055  0.78583958    -0.52660
O1678       O  0.00704656  0.07141684  0.81569249    -0.52650
O1679       O  0.96295744  0.05141952  0.79765126    -0.51820
O1680       O  0.55337052  0.24066622  0.88818046    -0.53030
C1681       C  0.59652910  0.21237736  0.90810031     0.79600
O1682       O  0.57795195  0.20471756  0.85680531    -0.54190
C1683       C  0.55842083  0.25543559  0.87699677     0.79570
C1684       C  0.63554393  0.27095045  0.87650256     0.81960
Cd1685     Cd  0.58404244  0.22756393  0.88045590     1.37470
O1686       O  0.58023473  0.21927961  0.90763354    -0.53030
O1687       O  0.61971650  0.27110560  0.88546270    -0.51840
C1688       C  0.55475067  0.18694125  0.85922617     0.81920
O1689       O  0.62779508  0.25053473  0.86900338    -0.54210
O1690       O  0.60434375  0.20914658  0.89575418    -0.52660
O1691       O  0.57411403  0.25635784  0.86750666    -0.52650
O1692       O  0.54548911  0.18666269  0.87188184    -0.51830
C1693       C  0.53943930  0.16839695  0.84787022    -0.08490
C1694       C  0.52729874  0.15369648  0.83782807    -0.10050
C1695       C  0.67993570  0.31496803  0.87417385    -0.08490
C1696       C  0.66087256  0.29357016  0.87483477    -0.10050
C1697       C  0.90267637  0.50188785  0.80348622    -0.08490
C1698       C  0.91965926  0.02434558  0.80429945    -0.10050
C1699       C  0.78669715  0.40449354  0.84079765    -0.08490
C1700       C  0.80129490  0.40446207  0.83169266    -0.10050
C1701       C  0.95546522  0.42866026  0.80712869    -0.08490
C1702       C  0.93283542  0.42152494  0.80727557    -0.10050
C1703       C  0.54437481  0.04716779  0.80868988    -0.08490
C1704       C  0.53880055  0.06338686  0.80815177    -0.10050
C1705       C  0.64424652  0.40331269  0.87019017    -0.08490
C1706       C  0.66564016  0.40689951  0.86906163    -0.10050
C1707       C  0.54863744  0.27217505  0.87546288    -0.08490
C1708       C  0.54637430  0.29058400  0.87429397    -0.10050
C1709       C  0.55192227  0.41569330  0.84564945    -0.08490
C1710       C  0.55179743  0.43013562  0.83643053    -0.10050
C1711       C  0.97213624  0.11039527  0.75952616    -0.08490
C1712       C  0.96275326  0.10441075  0.74716593    -0.10050
C1713       C  0.88037681  0.07661470  0.66434544    -0.08490
C1714       C  0.89461699  0.07604149  0.67357446    -0.10050
C1715       C  0.85536810  0.37391994  0.74742266    -0.08490
C1716       C  0.84943962  0.37883585  0.75925640    -0.10050
C1717       C  0.89997741  0.98095750  0.70142440    -0.08490
C1718       C  0.89466373  0.45890470  0.70096686    -0.10050
C1719       C  0.87732282  0.17278225  0.63683637    -0.08490
C1720       C  0.88286855  0.19490565  0.63735363    -0.10050
C1721       C  0.88889125  0.31988659  0.66456074    -0.08490
C1722       C  0.88800609  0.33361807  0.67395473    -0.10050
C1723       C  0.74313430  0.08490486  0.63698285    -0.08490
C1724       C  0.76040186  0.08081989  0.63786292    -0.10050
C1725       C  0.77379509  0.20008720  0.63466732    -0.08490
C1726       C  0.79597416  0.21785417  0.63426684    -0.10050
C1727       C  0.58017593  0.99896764  0.76287058    -0.08490
C1728       C  0.58601267  0.00870006  0.75060946    -0.10050
C1729       C  0.53223328  0.06929666  0.70184379    -0.08490
C1730       C  0.51507223  0.07356644  0.70117248    -0.10050
C1731       C  0.98059610  0.43501650  0.70479815    -0.08490
C1732       C  0.00269163  0.45295998  0.70436221    -0.10050
C1733       C  0.63010373  0.07002687  0.67409392    -0.08490
C1734       C  0.64490621  0.08310321  0.66431930    -0.10050
C1735       C  0.62007967  0.21670069  0.93354394    -0.08490
C1736       C  0.60791975  0.21129428  0.92200228    -0.10050
C1737       C  0.71695401  0.24500052  0.01127359    -0.08490
C1738       C  0.70162349  0.24548018  0.00287237    -0.10050
C1739       C  0.71909796  0.12751625  0.03398563    -0.08490
C1740       C  0.72393221  0.14935431  0.03467876    -0.10050
C1741       C  0.74810013  0.44727552  0.92540674    -0.08490
C1742       C  0.75233716  0.44128745  0.91342858    -0.10050
C1743       C  0.70990088  0.36503656  0.97453630    -0.08490
C1744       C  0.70305376  0.34255080  0.97481471    -0.10050
C1745       C  0.71983924  0.50700886  0.00625055    -0.08490
C1746       C  0.72163939  0.49352588  0.99718852    -0.10050
C1747       C  0.85665618  0.23590719  0.03748915    -0.08490
C1748       C  0.83933920  0.23989738  0.03630742    -0.10050
C1749       C  0.83112360  0.12357363  0.03693725    -0.08490
C1750       C  0.80888692  0.10599407  0.03690807    -0.10050
C1751       C  0.51751767  0.33511562  0.93036364    -0.08490
C1752       C  0.52329031  0.34612345  0.91846295    -0.10050
C1753       C  0.58505583  0.25988246  0.97868280    -0.08490
C1754       C  0.56907250  0.26571170  0.97745403    -0.10050
C1755       C  0.62724318  0.39649273  0.97261998    -0.08490
C1756       C  0.60456125  0.38048382  0.97384286    -0.10050
C1757       C  0.95844255  0.24806518  0.01185654    -0.08490
C1758       C  0.97304394  0.26310344  0.00264182    -0.10050
C1759       C  0.80688044  0.04904422  0.59167210    -0.08490
C1760       C  0.79546884  0.04286477  0.57985696    -0.10050
C1761       C  0.71232659  0.48017186  0.49599593    -0.08490
C1762       C  0.72593657  0.49508958  0.50561616    -0.10050
C1763       C  0.68812550  0.14814287  0.58939950    -0.08490
C1764       C  0.69345709  0.15875044  0.57737177    -0.10050
C1765       C  0.72405625  0.11062427  0.53116166    -0.08490
C1766       C  0.72829452  0.09349138  0.53213870    -0.10050
C1767       C  0.71338500  0.36435784  0.46920782    -0.08490
C1768       C  0.70928318  0.38159816  0.46837818    -0.10050
C1769       C  0.71902685  0.23036003  0.50480957    -0.08490
C1770       C  0.71829837  0.24476031  0.49581003    -0.10050
C1771       C  0.92339397  0.27227898  0.57852459    -0.08490
C1772       C  0.91872831  0.27802174  0.59048713    -0.10050
C1773       C  0.84382411  0.12521428  0.53395153    -0.08490
C1774       C  0.86140753  0.14743417  0.53457256    -0.10050
C1775       C  0.81577390  0.22797260  0.53164654    -0.08490
C1776       C  0.83800238  0.23375791  0.53137072    -0.10050
C1777       C  0.57678061  0.32914933  0.46599295    -0.08490
C1778       C  0.59439989  0.35136251  0.46647333    -0.10050
C1779       C  0.59951202  0.24172706  0.46873860    -0.08490
C1780       C  0.62166957  0.24728506  0.46838611    -0.10050
C1781       C  0.96262017  0.23901546  0.50552047    -0.08490
C1782       C  0.97603299  0.23763453  0.49615328    -0.10050
C1783       C  0.91684427  0.17323437  0.08305692    -0.08490
C1784       C  0.91185277  0.16158132  0.09472843    -0.10050
C1785       C  0.88386648  0.06931789  0.17399907    -0.08490
C1786       C  0.88378280  0.08456238  0.16540327    -0.10050
C1787       C  0.80274502  0.27486725  0.09382398    -0.08490
C1788       C  0.79167850  0.27015743  0.08195411    -0.10050
C1789       C  0.87020981  0.22007193  0.13979331    -0.08490
C1790       C  0.87534759  0.20357326  0.14074043    -0.10050
C1791       C  0.89475218  0.43181034  0.19977820    -0.08490
C1792       C  0.89020479  0.44870293  0.19861438    -0.10050
C1793       C  0.88796794  0.33233265  0.17486917    -0.08490
C1794       C  0.87327949  0.31723146  0.16572250    -0.10050
C1795       C  0.68315566  0.03836478  0.07901728    -0.08490
C1796       C  0.67806996  0.04234314  0.09130627    -0.10050
C1797       C  0.75484040  0.18690357  0.13833702    -0.08490
C1798       C  0.73805413  0.16443799  0.13756619    -0.10050
C1799       C  0.76535238  0.07959707  0.13854330    -0.08490
C1800       C  0.78774150  0.08593556  0.13840408    -0.10050
C1801       C  0.52602263  0.98508188  0.20068659    -0.08490
C1802       C  0.50885676  0.46270831  0.20043006    -0.10050
C1803       C  0.00183112  0.07182767  0.19849360    -0.08490
C1804       C  0.97959225  0.06592066  0.19903095    -0.10050
C1805       C  0.62544085  0.07463539  0.17212701    -0.08490
C1806       C  0.63895743  0.07255208  0.16323060    -0.10050
C1807       C  0.85648163  0.49213051  0.24438865    -0.08490
C1808       C  0.85134292  0.48033057  0.25601351    -0.10050
C1809       C  0.74471205  0.31589081  0.42322890    -0.08490
C1810       C  0.75017832  0.32655552  0.41122411    -0.10050
C1811       C  0.79490847  0.39447335  0.33757956    -0.08490
C1812       C  0.80976353  0.40864944  0.32816014    -0.10050
C1813       C  0.97301069  0.37970976  0.25708017    -0.08490
C1814       C  0.96145884  0.37491987  0.24537668    -0.10050
C1815       C  0.92660541  0.41131197  0.30231564    -0.08490
C1816       C  0.90928157  0.41529355  0.30124674    -0.10050
C1817       C  0.63525453  0.43110012  0.40909418    -0.08490
C1818       C  0.64596408  0.43653539  0.42111139    -0.10050
C1819       C  0.68078644  0.39731748  0.36249759    -0.08490
C1820       C  0.69748915  0.39243553  0.36345762    -0.10050
C1821       C  0.54734376  0.40652357  0.32855008    -0.08490
C1822       C  0.56207149  0.40580228  0.33731782    -0.10050
C1823       C  0.51297352  0.20506587  0.42246525    -0.08490
C1824       C  0.51795444  0.20016191  0.41037005    -0.10050
C1825       C  0.66458921  0.27683445  0.36550575    -0.08490
C1826       C  0.64214130  0.25978656  0.36606535    -0.10050
C1827       C  0.55684307  0.28623281  0.36317739    -0.08490
C1828       C  0.56300374  0.30852835  0.36344212    -0.10050
C1829       C  0.58614975  0.11447600  0.25624348    -0.08490
C1830       C  0.59094323  0.11008148  0.24398309    -0.10050
C1831       C  0.93853389  0.02884000  0.30016422    -0.08490
C1832       C  0.96077543  0.04637599  0.29966486    -0.10050
C1833       C  0.54910570  0.02475686  0.30163773    -0.08490
C1834       C  0.54366110  0.50267786  0.30142180    -0.10050
C1835       C  0.55100437  0.14716168  0.32875732    -0.08490
C1836       C  0.54942762  0.16064713  0.33792813    -0.10050
O1837       O  0.54935826  0.60286421  0.27045802    -0.53030
C1838       C  0.48832431  0.56284639  0.29878836     0.79600
O1839       O  0.56229626  0.56770047  0.30842174    -0.54190
C1840       C  0.57323440  0.61088813  0.27020454     0.79570
C1841       C  0.55127156  0.63031127  0.31776457     0.81960
Cd1842     Cd  0.54340583  0.59156649  0.29692015     1.37470
O1843       O  0.49951042  0.57660908  0.28737543    -0.53030
O1844       O  0.54360535  0.62999555  0.30457736    -0.51840
C1845       C  0.54867242  0.54794691  0.30030520     0.81920
O1846       O  0.55801795  0.61443350  0.32097990    -0.54210
O1847       O  0.50246064  0.56291669  0.30919400    -0.52660
O1848       O  0.58427131  0.61290471  0.28259191    -0.52650
O1849       O  0.53351197  0.54882339  0.29099370    -0.51830
O1850       O  0.60305718  0.73075930  0.37848503    -0.53030
C1851       C  0.53039068  0.70205768  0.39640951     0.79600
O1852       O  0.54140580  0.74234051  0.35740189    -0.54190
C1853       C  0.61451922  0.74432002  0.36705413     0.79570
C1854       C  0.54966721  0.67793945  0.34879686     0.81960
Cd1855     Cd  0.55951326  0.71794870  0.36920756     1.37470
O1856       O  0.55404728  0.70921235  0.39608287    -0.53030
O1857       O  0.55683896  0.67799135  0.36207806    -0.51840
C1858       C  0.55645945  0.76265657  0.36478714     0.81920
O1859       O  0.54408183  0.69459982  0.34534120    -0.54210
O1860       O  0.51913397  0.69917246  0.38399116    -0.52660
O1861       O  0.60066516  0.74509002  0.35675977    -0.52650
O1862       O  0.57214153  0.76188877  0.37372419    -0.51820
O1863       O  0.60548445  0.89544595  0.39455815    -0.53030
C1864       C  0.57632803  0.83610408  0.36458779     0.79600
O1865       O  0.60047567  0.90735254  0.34388854    -0.54190
C1866       C  0.62349646  0.91901591  0.39508984     0.79570
C1867       C  0.65669897  0.89607419  0.36345501     0.81960
Cd1868     Cd  0.60782550  0.89107294  0.36747642     1.37460
O1869       O  0.57473051  0.84716616  0.37610864    -0.53030
O1870       O  0.63908645  0.87912099  0.37168029    -0.51840
C1871       C  0.57866039  0.90333457  0.34773278     0.81920
O1872       O  0.65187903  0.91111304  0.35631450    -0.54210
O1873       O  0.59163860  0.85033312  0.35443156    -0.52660
O1874       O  0.63216102  0.93062926  0.38277566    -0.52650
O1875       O  0.57152635  0.89600884  0.36101015    -0.51830
O1876       O  0.00359502  0.91518653  0.27134315    -0.53030
C1877       C  0.53109238  0.97512695  0.30056946     0.79600
O1878       O  0.95651881  0.89908116  0.30912921    -0.54190
C1879       C  0.98535506  0.89169572  0.27095187     0.79570
C1880       C  0.53058125  0.90871413  0.31813540     0.81960
Cd1881     Cd  0.00086378  0.92003733  0.29824976     1.37460
O1882       O  0.53305029  0.96397926  0.28920417    -0.53030
O1883       O  0.53737877  0.91544752  0.30475049    -0.51840
C1884       C  0.95117896  0.91348985  0.30170770     0.81920
O1885       O  0.00890541  0.90495636  0.32206779    -0.54210
O1886       O  0.51609269  0.96094406  0.31085020    -0.52660
O1887       O  0.97671033  0.88024883  0.28330762    -0.52650
O1888       O  0.96870096  0.93066312  0.29353438    -0.51820
O1889       O  0.74381302  0.85468018  0.39635454    -0.53030
C1890       C  0.71185667  0.88010288  0.36528711     0.79600
O1891       O  0.75800454  0.85575595  0.34580562    -0.54190
C1892       C  0.74938658  0.83742467  0.39709873     0.79570
C1893       C  0.68876826  0.80096897  0.36637470     0.81960
Cd1894     Cd  0.73518756  0.85035507  0.36938283     1.37460
O1895       O  0.72544284  0.88335909  0.37683224    -0.53030
O1896       O  0.69079559  0.81844210  0.37481793    -0.51840
C1897       C  0.77634041  0.87854837  0.34868956     0.81920
O1898       O  0.70845354  0.80603886  0.35878329    -0.54210
O1899       O  0.70984067  0.86398010  0.35573573    -0.52660
O1900       O  0.75165105  0.82846096  0.38490267    -0.52650
O1901       O  0.77700996  0.88722816  0.36158177    -0.51830
O1902       O  0.88024926  0.92329439  0.28815592    -0.53030
C1903       C  0.85282090  0.96861747  0.26964403     0.79600
O1904       O  0.84595941  0.94803421  0.32005509    -0.54190
C1905       C  0.89397530  0.92667454  0.29966486     0.79570
C1906       C  0.91459457  0.50449581  0.29926604     0.81960
Cd1907     Cd  0.86873817  0.95474833  0.29634192     1.37470
O1908       O  0.85866583  0.95152349  0.26952906    -0.53030
O1909       O  0.91230969  0.48784138  0.29004103    -0.51840
C1910       C  0.82814690  0.92503923  0.31709330     0.81920
O1911       O  0.89542915  0.49841108  0.30763439    -0.54210
O1912       O  0.85101927  0.97679729  0.28223757    -0.52660
O1913       O  0.89521251  0.94207472  0.30947620    -0.52650
O1914       O  0.82775122  0.91669410  0.30413605    -0.51830
O1915       O  0.58014892  0.57356551  0.22977873    -0.53030
C1916       C  0.54190125  0.51262632  0.20148742     0.79600
O1917       O  0.54510974  0.58592143  0.19177963    -0.54190
C1918       C  0.58789585  0.59733263  0.23002387     0.79570
C1919       C  0.60855025  0.57536163  0.18287235     0.81960
Cd1920     Cd  0.56945881  0.56752562  0.20328158     1.37460
O1921       O  0.55538358  0.52412325  0.21295292    -0.53030
O1922       O  0.60848241  0.56857350  0.19623191    -0.51840
C1923       C  0.52525469  0.57176485  0.19972083     0.81920
O1924       O  0.59234200  0.58152675  0.17927352    -0.54210
O1925       O  0.54165465  0.52640140  0.19098323    -0.52660
O1926       O  0.59012267  0.60835643  0.21761567    -0.52650
O1927       O  0.52627751  0.55647722  0.20883214    -0.51820
O1928       O  0.71047238  0.62612967  0.12418471    -0.53030
C1929       C  0.68044586  0.55430798  0.10546414     0.79600
O1930       O  0.72140156  0.56406871  0.14438121    -0.54190
C1931       C  0.72293700  0.63696202  0.13604813     0.79570
C1932       C  0.65639659  0.57247621  0.15263355     0.81960
Cd1933     Cd  0.69695466  0.58236133  0.13287539     1.37460
O1934       O  0.68829920  0.57807767  0.10612756    -0.53030
O1935       O  0.65710741  0.58003442  0.13938491    -0.51840
C1936       C  0.74169034  0.57913967  0.13698191     0.81920
O1937       O  0.67260294  0.56635040  0.15632002    -0.54210
O1938       O  0.67735827  0.54250533  0.11768773    -0.52660
O1939       O  0.72294889  0.62265423  0.14629467    -0.52650
O1940       O  0.74084870  0.59483970  0.12812538    -0.51830
O1941       O  0.90435090  0.90460046  0.21353666    -0.53030
C1942       C  0.94981708  0.87684990  0.23184184     0.79600
O1943       O  0.92793085  0.86850696  0.18221760    -0.54190
C1944       C  0.90664064  0.91703496  0.20163309     0.79570
C1945       C  0.98480143  0.93861337  0.20175718     0.81960
Cd1946     Cd  0.93545391  0.89267438  0.20536070     1.37460
O1947       O  0.93301953  0.88311315  0.23213545    -0.53030
O1948       O  0.96868394  0.93619915  0.21143008    -0.51840
C1949       C  0.90490679  0.85117662  0.18553934     0.81920
O1950       O  0.97840007  0.91946155  0.19331944    -0.54210
O1951       O  0.95770198  0.87491864  0.21917964    -0.52660
O1952       O  0.92140795  0.91749301  0.19164429    -0.52650
O1953       O  0.89698702  0.85171994  0.19846499    -0.51830
O1954       O  0.83112746  0.76728345  0.10760929    -0.53030
C1955       C  0.85772994  0.73431269  0.13806869     0.79600
O1956       O  0.83406228  0.78053213  0.15792199    -0.54190
C1957       C  0.81399968  0.77310521  0.10757125     0.79570
C1958       C  0.77878180  0.71117481  0.13742172     0.81960
Cd1959     Cd  0.82786306  0.75759522  0.13440010     1.37460
O1960       O  0.86031192  0.74737569  0.12640475    -0.53030
O1961       O  0.79565714  0.71384405  0.12823811    -0.51840
C1962       C  0.85688711  0.79859212  0.15480978     0.81920
O1963       O  0.78430523  0.73026541  0.14570562    -0.54210
O1964       O  0.84217364  0.73273898  0.14788747    -0.52660
O1965       O  0.80550680  0.77478544  0.12008525    -0.52650
O1966       O  0.86518785  0.79897343  0.14185098    -0.51820
O1967       O  0.87619822  0.63017636  0.10855640    -0.53030
C1968       C  0.81540840  0.59952590  0.13759891     0.79600
O1969       O  0.88576080  0.62324106  0.15922089    -0.54190
C1970       C  0.89959696  0.64871040  0.10844829     0.79570
C1971       C  0.87453508  0.67974458  0.13973538     0.81960
Cd1972     Cd  0.87049549  0.63145589  0.13551859     1.37470
O1973       O  0.82699414  0.59851330  0.12615612    -0.53030
O1974       O  0.85811344  0.66228700  0.13119673    -0.51840
C1975       C  0.88202147  0.60167900  0.15510540     0.81920
O1976       O  0.88942849  0.67499886  0.14713739    -0.54210
O1977       O  0.82918667  0.61448564  0.14801880    -0.52660
O1978       O  0.91068247  0.65700807  0.12095142    -0.52650
O1979       O  0.87553469  0.59522788  0.14164717    -0.51830
O1980       O  0.89220361  0.52314146  0.23041784    -0.53030
C1981       C  0.95201711  0.55278448  0.20034190     0.79600
O1982       O  0.87697722  0.97790232  0.19204764    -0.54190
C1983       C  0.86862859  0.00499479  0.23064734     0.79570
C1984       C  0.88560380  0.55203292  0.18417006     0.81960
Cd1985     Cd  0.89705168  0.52178527  0.20336436     1.37460
O1986       O  0.94121146  0.55430785  0.21201343    -0.53030
O1987       O  0.89267733  0.55851267  0.19756297    -0.51840
C1988       C  0.89177438  0.97292336  0.19937413     0.81920
O1989       O  0.88125270  0.53026585  0.17998036    -0.54210
O1990       O  0.93753103  0.53772142  0.19014867    -0.52660
O1991       O  0.85716885  0.99702318  0.21821181    -0.52650
O1992       O  0.90874927  0.99046501  0.20764962    -0.51820
O1993       O  0.54570728  0.79008363  0.45421208    -0.53030
C1994       C  0.51500482  0.71734986  0.43650785     0.79600
O1995       O  0.55592026  0.72729050  0.47495647    -0.54190
C1996       C  0.56032491  0.80158407  0.46531628     0.79570
C1997       C  0.99294082  0.73771353  0.48496994     0.81960
Cd1998     Cd  0.53198811  0.74645970  0.46373925     1.37460
O1999       O  0.52186966  0.74087787  0.43696412    -0.53030
O2000       O  0.99254349  0.74473993  0.47171552    -0.51840
C2001       C  0.57618605  0.74201580  0.46745276     0.81920
O2002       O  0.00961719  0.73195478  0.48807947    -0.54210
O2003       O  0.51268797  0.70614525  0.44885674    -0.52660
O2004       O  0.56114356  0.78774308  0.47557771    -0.52650
O2005       O  0.57562434  0.75801845  0.45872715    -0.51830
O2006       O  0.89209415  0.68629918  0.54671794    -0.53030
C2007       C  0.92173663  0.75964371  0.56462556     0.79600
O2008       O  0.92922332  0.74514643  0.51336329    -0.54190
C2009       C  0.87778300  0.67499302  0.53546906     0.79570
C2010       C  0.86146188  0.73380737  0.53296013     0.81960
Cd2011     Cd  0.90590693  0.73009931  0.53739413     1.37460
O2012       O  0.91497642  0.73612417  0.56439451    -0.53030
O2013       O  0.86209401  0.71816834  0.54196195    -0.51840
C2014       C  0.94554065  0.73895282  0.51657929     0.81920
O2015       O  0.88179317  0.74850607  0.52549675    -0.54210
O2016       O  0.92448480  0.77060606  0.55213507    -0.52660
O2017       O  0.87716521  0.68901400  0.52525420    -0.52650
O2018       O  0.94538866  0.73149813  0.52980248    -0.51820
O2019       O  0.66025151  0.75758683  0.45604442    -0.53030
C2020       C  0.73253348  0.80452670  0.43724802     0.79600
O2021       O  0.72582309  0.83450713  0.47561628    -0.54190
C2022       C  0.64927268  0.75993294  0.46736772     0.79570
C2023       C  0.71601568  0.76109939  0.48512629     0.81960
Cd2024     Cd  0.70450137  0.79015245  0.46478188     1.37470
O2025       O  0.70882374  0.78682982  0.43779443    -0.53030
O2026       O  0.70886264  0.75370074  0.47184943    -0.51840
C2027       C  0.71127158  0.83987039  0.46835706     0.81920
O2028       O  0.72009778  0.78300804  0.48871524    -0.54210
O2029       O  0.74419996  0.81336403  0.44954625    -0.52660
O2030       O  0.66366639  0.77535368  0.47745659    -0.52650
O2031       O  0.69397722  0.82242857  0.46017105    -0.51830
O2032       O  0.72914928  0.68786989  0.56268016    -0.53030
C2033       C  0.78817602  0.71518118  0.53276762     0.79600
O2034       O  0.71140911  0.64036818  0.52486956    -0.54190
C2035       C  0.70542778  0.67022603  0.56331791     0.79570
C2036       C  0.72132840  0.71395767  0.51543637     0.81960
Cd2037     Cd  0.73301053  0.68482491  0.53560812     1.37470
O2038       O  0.77729515  0.71756211  0.54412846    -0.53030
O2039       O  0.72855531  0.72129183  0.52871414    -0.51840
C2040       C  0.72622902  0.63514193  0.53194264     0.81920
O2041       O  0.71720412  0.69205669  0.51178573    -0.54210
O2042       O  0.77370686  0.69961404  0.52275205    -0.52660
O2043       O  0.69353738  0.66158290  0.55105838    -0.52650
O2044       O  0.74382420  0.65273250  0.53991637    -0.51830
O2045       O  0.70166216  0.91107323  0.45561127    -0.53030
C2046       C  0.65663600  0.93576599  0.43534035     0.79600
O2047       O  0.62410149  0.89505034  0.47328722    -0.54190
C2048       C  0.69768156  0.89670280  0.46685500     0.79570
C2049       C  0.69682513  0.96177392  0.48462067     0.81960
Cd2050     Cd  0.66892747  0.92123324  0.46321251     1.37470
O2051       O  0.67414884  0.93054002  0.43626271    -0.53030
O2052       O  0.70584350  0.96288445  0.47176852    -0.51840
C2053       C  0.61888767  0.87525015  0.46578856     0.81920
O2054       O  0.67398556  0.94324051  0.48718879    -0.54210
O2055       O  0.64720660  0.93765739  0.44744961    -0.52660
O2056       O  0.68145540  0.89459903  0.47636383    -0.52650
O2057       O  0.63651942  0.87691163  0.45763128    -0.51830
O2058       O  0.76599858  0.54733331  0.56493646    -0.53030
C2059       C  0.74024265  0.57873651  0.53384355     0.79600
O2060       O  0.81437453  0.58128388  0.52745531    -0.54190
C2061       C  0.78376391  0.54243980  0.56574850     0.79570
C2062       C  0.74161671  0.51376132  0.51683424     0.81960
Cd2063     Cd  0.76972005  0.55504150  0.53777771     1.37460
O2064       O  0.73654171  0.56469728  0.54521652    -0.53030
O2065       O  0.73291221  0.51283606  0.52976030    -0.51840
C2066       C  0.81937990  0.60128240  0.53467331     0.81920
O2067       O  0.76429139  0.53240439  0.51402245    -0.54210
O2068       O  0.75654071  0.58089778  0.52436867    -0.52660
O2069       O  0.79247951  0.53977553  0.55356735    -0.52650
O2070       O  0.80163142  0.59973509  0.54266753    -0.51830
O2071       O  0.54208591  0.77563458  0.96365261    -0.53030
C2072       C  0.51799610  0.82328399  0.94418510     0.79600
O2073       O  0.50933332  0.80260111  0.99467508    -0.54190
C2074       C  0.55523074  0.77854246  0.97536494     0.79570
C2075       C  0.57979989  0.85697902  0.97342043     0.81960
Cd2076     Cd  0.53237450  0.80864204  0.97113194     1.37460
O2077       O  0.52254585  0.80526167  0.94435620    -0.53030
O2078       O  0.57621630  0.83943397  0.96449604    -0.51840
C2079       C  0.99133312  0.77970907  0.99161017     0.81920
O2080       O  0.56117694  0.85248257  0.98187379    -0.54210
O2081       O  0.51659111  0.83211991  0.95664991    -0.52660
O2082       O  0.55716453  0.79461807  0.98492613    -0.52650
O2083       O  0.99081922  0.77146392  0.97860760    -0.51820
O2084       O  0.88565121  0.72823755  0.05090793    -0.53030
C2085       C  0.91511175  0.68477066  0.06941533     0.79600
O2086       O  0.87439959  0.65528251  0.03045427    -0.54190
C2087       C  0.87238494  0.72499118  0.03920611     0.79570
C2088       C  0.94017340  0.73049121  0.02259778     0.81960
Cd2089     Cd  0.89920129  0.69840912  0.04259464     1.37460
O2090       O  0.90816414  0.70102426  0.06950662    -0.53030
O2091       O  0.93948761  0.73794061  0.03563726    -0.51840
C2092       C  0.85465360  0.64811171  0.03853005     0.81920
O2093       O  0.92344944  0.70729680  0.01924131    -0.54210
O2094       O  0.91787030  0.67726756  0.05682071    -0.52660
O2095       O  0.87213948  0.71025796  0.02927338    -0.52650
O2096       O  0.85588820  0.66390138  0.04805164    -0.51830
O2097       O  0.71288338  0.93971036  0.94005427    -0.53030
C2098       C  0.65471548  0.91036365  0.97076777     0.79600
O2099       O  0.72698798  0.90960603  0.97918016    -0.54190
C2100       C  0.73652976  0.94688098  0.93942953     0.79570
C2101       C  0.72107737  0.97571190  0.98660806     0.81960
Cd2102     Cd  0.70918436  0.93406934  0.96717494     1.37470
O2103       O  0.66560675  0.92276399  0.95891079    -0.53030
O2104       O  0.71374543  0.97519281  0.97330812    -0.51840
C2105       C  0.71088860  0.88883832  0.97247993     0.81920
O2106       O  0.72624999  0.95888256  0.99040771    -0.54210
O2107       O  0.66888294  0.90926771  0.98072935    -0.52660
O2108       O  0.74859615  0.95123114  0.95169239    -0.52650
O2109       O  0.69473144  0.88938552  0.96384012    -0.51820
O2110       O  0.72020818  0.55064587  0.06491501    -0.53030
C2111       C  0.78128929  0.58974558  0.03732089     0.79600
O2112       O  0.71331598  0.54009238  0.01390401    -0.54190
C2113       C  0.69622844  0.54214114  0.06509431     0.79570
C2114       C  0.72025756  0.60471284  0.03505100     0.81960
Cd2115     Cd  0.72616615  0.56150933  0.03841538     1.37460
O2116       O  0.76948987  0.57541690  0.04844025    -0.53030
O2117       O  0.73642373  0.60449336  0.04383446    -0.51840
C2118       C  0.71903816  0.52350160  0.01727118     0.81920
O2119       O  0.70611040  0.58458193  0.02731892    -0.54210
O2120       O  0.76772890  0.59050655  0.02683695    -0.52660
O2121       O  0.68516589  0.53969380  0.05265897    -0.52650
O2122       O  0.72517528  0.52273252  0.03068142    -0.51820
O2123       O  0.68859618  0.80239423  0.96320177    -0.53030
C2124       C  0.63426855  0.72937095  0.94693024     0.79600
O2125       O  0.66351332  0.74520222  0.99717126    -0.54190
C2126       C  0.68868400  0.81487982  0.97450752     0.79570
C2127       C  0.60821692  0.75932671  0.97779300     0.81960
Cd2128     Cd  0.65486082  0.76002450  0.97337405     1.37470
O2129       O  0.65393861  0.75214508  0.94646767    -0.53030
O2130       O  0.62585309  0.77469366  0.96899623    -0.51840
C2131       C  0.68444658  0.74767626  0.99276414     0.81920
O2132       O  0.61212983  0.74411448  0.98546968    -0.54210
O2133       O  0.62627372  0.71939329  0.95969701    -0.52660
O2134       O  0.67403640  0.80204776  0.98524023    -0.52650
O2135       O  0.69024922  0.75327064  0.97916146    -0.51820
O2136       O  0.73379807  0.68669892  0.04817854    -0.53030
C2137       C  0.77990064  0.75860108  0.06788780     0.79600
O2138       O  0.80959491  0.75233787  0.02933447    -0.54190
C2139       C  0.73589318  0.67672221  0.03630441     0.79570
C2140       C  0.73432929  0.74290714  0.02126534     0.81960
Cd2141     Cd  0.76514888  0.73146739  0.04016727     1.37470
O2142       O  0.76187165  0.73504489  0.06715735    -0.53030
O2143       O  0.72755942  0.73461459  0.03444404    -0.51840
C2144       C  0.81483364  0.73791124  0.03684162     0.81920
O2145       O  0.75651384  0.74825364  0.01713279    -0.54210
O2146       O  0.78877693  0.77060130  0.05569531    -0.52660
O2147       O  0.75055344  0.69191737  0.02622217    -0.52650
O2148       O  0.79726598  0.72087993  0.04505363    -0.51830
O2149       O  0.57968402  0.53524653  0.73428791    -0.53030
C2150       C  0.54716645  0.55750005  0.70336939     0.79600
O2151       O  0.59256517  0.53266590  0.68313665    -0.54190
C2152       C  0.58551677  0.51831593  0.73599199     0.79570
C2153       C  0.52618028  0.97784070  0.70489671     0.81960
Cd2154     Cd  0.57147199  0.52854896  0.70730921     1.37470
O2155       O  0.56223798  0.56212164  0.71435747    -0.53030
O2156       O  0.52669341  0.99596198  0.71193795    -0.51840
C2157       C  0.61177715  0.55515090  0.68560387     0.81920
O2158       O  0.54678670  0.98287960  0.69838196    -0.54210
O2159       O  0.54421929  0.54049542  0.69418905    -0.52660
O2160       O  0.58824001  0.00848465  0.72429461    -0.52650
O2161       O  0.61363215  0.56439836  0.69847844    -0.51830
O2162       O  0.69448493  0.62022389  0.60451651    -0.53030
C2163       C  0.72813823  0.59660587  0.63533977     0.79600
O2164       O  0.73015894  0.67028021  0.64155913    -0.54190
C2165       C  0.68904861  0.63756586  0.60361411     0.79570
C2166       C  0.66331942  0.59821256  0.65289576     0.81960
Cd2167     Cd  0.70385163  0.62553523  0.63147003     1.37470
O2168       O  0.71375053  0.59255316  0.62406770    -0.53030
O2169       O  0.66211035  0.58889336  0.64012021    -0.51840
C2170       C  0.74991709  0.67557088  0.63397981     0.81920
O2171       O  0.68196557  0.62102598  0.65535920    -0.54210
O2172       O  0.73039043  0.61300680  0.64475763    -0.52660
O2173       O  0.68708919  0.64692777  0.61573079    -0.52650
O2174       O  0.74821070  0.65800192  0.62575271    -0.51830
O2175       O  0.88391479  0.77175648  0.60519609    -0.53030
C2176       C  0.82357645  0.73450470  0.63370970     0.79600
O2177       O  0.89824685  0.73884937  0.64322047    -0.54190
C2178       C  0.90713464  0.77748748  0.60458128     0.79570
C2179       C  0.88832354  0.80256056  0.65341156     0.81960
Cd2180     Cd  0.87880966  0.76278364  0.63221348     1.37460
O2181       O  0.83511084  0.74926908  0.62268517    -0.53030
O2182       O  0.88132636  0.80287364  0.64012392    -0.51840
C2183       C  0.88264456  0.71826439  0.63619002     0.81920
O2184       O  0.89366075  0.78561723  0.65658194    -0.54210
O2185       O  0.83743524  0.73367090  0.64398039    -0.52660
O2186       O  0.91858868  0.78005255  0.61688907    -0.52650
O2187       O  0.86593363  0.71859783  0.62796582    -0.51820
O2188       O  0.89120845  0.88097937  0.73337984    -0.53030
C2189       C  0.95297233  0.91842712  0.70523126     0.79600
O2190       O  0.88308708  0.86778368  0.68195845    -0.54190
C2191       C  0.86791381  0.87510512  0.73355787     0.79570
C2192       C  0.89460021  0.93540244  0.70224861     0.81960
Cd2193     Cd  0.89770055  0.89047316  0.70637634     1.37470
O2194       O  0.94119984  0.90370863  0.71623720    -0.53030
O2195       O  0.91053745  0.93461369  0.71095261    -0.51840
C2196       C  0.88849115  0.85088319  0.68511782     0.81920
O2197       O  0.87946201  0.91511003  0.69485485    -0.54210
O2198       O  0.93933076  0.91933639  0.69485276    -0.52660
O2199       O  0.85716421  0.87285947  0.72103530    -0.52650
O2200       O  0.89544803  0.85053778  0.69841257    -0.51820
O2201       O  0.83685356  0.58519835  0.60590476    -0.53030
C2202       C  0.86474854  0.64521043  0.63571807     0.79600
O2203       O  0.79047321  0.56853121  0.64408113    -0.54190
C2204       C  0.81906300  0.56152160  0.60554663     0.79570
C2205       C  0.86401588  0.57872541  0.65353692     0.81960
Cd2206     Cd  0.83472715  0.58996960  0.63306715     1.37460
O2207       O  0.86746797  0.63432285  0.62446923    -0.53030
O2208       O  0.87145252  0.58580254  0.64026036    -0.51840
C2209       C  0.78498129  0.58307740  0.63695099     0.81920
O2210       O  0.84201621  0.57457222  0.65703290    -0.54210
O2211       O  0.84905627  0.63074388  0.64566363    -0.52660
O2212       O  0.81090042  0.55010281  0.61795300    -0.52650
O2213       O  0.80235785  0.60047394  0.62880691    -0.51820
O2214       O  0.93547788  0.56809939  0.73230746    -0.53030
C2215       C  0.91182287  0.50844197  0.70259686     0.79600
O2216       O  0.93357446  0.57984908  0.68151998    -0.54190
C2217       C  0.95274098  0.59191353  0.73299538     0.79570
C2218       C  0.49055486  0.57144208  0.70218151     0.81960
Cd2219     Cd  0.94027793  0.56368660  0.70542950     1.37460
O2220       O  0.90869623  0.51892542  0.71389707    -0.53030
O2221       O  0.97364544  0.55496207  0.71092962    -0.51840
C2222       C  0.91083782  0.57408167  0.68455429     0.81920
O2223       O  0.48453983  0.58498277  0.69440564    -0.54210
O2224       O  0.92719435  0.52327910  0.69264609    -0.52660
O2225       O  0.96224555  0.60350190  0.72077371    -0.52650
O2226       O  0.90259201  0.56562601  0.69754241    -0.51820
O2227       O  0.55956063  0.87316973  0.90356015    -0.53030
C2228       C  0.61713530  0.89316021  0.87219750     0.79600
O2229       O  0.53806093  0.82294188  0.86652512    -0.54190
C2230       C  0.53544839  0.85683257  0.90434595     0.79570
C2231       C  0.55321642  0.89883051  0.85639487     0.81960
Cd2232     Cd  0.56239271  0.86792936  0.87661994     1.37470
O2233       O  0.60837576  0.89770026  0.88381078    -0.53030
O2234       O  0.56230584  0.90672535  0.86934669    -0.51840
C2235       C  0.55080505  0.81612604  0.87448521     0.81920
O2236       O  0.54622295  0.87582442  0.85315030    -0.54210
O2237       O  0.60085076  0.87785352  0.86270183    -0.52660
O2238       O  0.02318537  0.84835850  0.89217721    -0.52650
O2239       O  0.56851691  0.83306620  0.88270871    -0.51820
O2240       O  0.54370168  0.97076103  0.77729964    -0.53030
C2241       C  0.48318421  0.94253341  0.80627351     0.79600
O2242       O  0.55385682  0.96818465  0.82852818    -0.54190
C2243       C  0.56747577  0.48827412  0.77688702     0.79570
C2244       C  0.54357616  0.52333491  0.80759115     0.81960
Cd2245     Cd  0.53850548  0.97429338  0.80417984     1.37470
O2246       O  0.49484467  0.94038471  0.79523842    -0.53030
O2247       O  0.52728388  0.50593417  0.79896904    -0.51840
C2248       C  0.54988884  0.94616945  0.82534621     0.81920
O2249       O  0.55813011  0.51838855  0.81517858    -0.54210
O2250       O  0.49693945  0.95867038  0.81624375    -0.52660
O2251       O  0.57876664  0.49737791  0.78925166    -0.52650
O2252       O  0.54308093  0.93832608  0.81210092    -0.51820
O2253       O  0.87358615  0.96249164  0.79124559    -0.53030
C2254       C  0.84922667  0.89048532  0.77319772     0.79600
O2255       O  0.88825288  0.90362838  0.81281485    -0.54190
C2256       C  0.88720262  0.97424787  0.80263534     0.79570
C2257       C  0.81990038  0.90661914  0.82093801     0.81960
Cd2258     Cd  0.86176460  0.91926178  0.80067324     1.37470
O2259       O  0.85337790  0.91313072  0.77355351    -0.53030
O2260       O  0.82020216  0.91427454  0.80774459    -0.51840
C2261       C  0.90840803  0.91953286  0.80555108     0.81920
O2262       O  0.83739871  0.90217619  0.82441242    -0.54210
O2263       O  0.84741413  0.87971038  0.78563781    -0.52660
O2264       O  0.88806663  0.96066547  0.81304522    -0.52650
O2265       O  0.90663291  0.93455185  0.79659084    -0.51820
O2266       O  0.71407841  0.85417605  0.88424487    -0.53030
C2267       C  0.74943676  0.92809304  0.89961141     0.79600
O2268       O  0.75227917  0.90941194  0.84832555    -0.54190
C2269       C  0.69863659  0.84217039  0.87353372     0.79570
C2270       C  0.68794404  0.90468493  0.86975624     0.81960
Cd2271     Cd  0.73048703  0.89730413  0.87305025     1.37460
O2272       O  0.74283096  0.90462045  0.89956039    -0.53030
O2273       O  0.68769425  0.88813061  0.87836443    -0.51840
C2274       C  0.76910412  0.90398828  0.85172267     0.81920
O2275       O  0.70813686  0.91837478  0.86197254    -0.54210
O2276       O  0.75064548  0.93841881  0.88710799    -0.52660
O2277       O  0.69902537  0.85539338  0.86251190    -0.52650
O2278       O  0.76937707  0.89743453  0.86510904    -0.51820
O2279       O  0.52927452  0.59214969  0.79620436    -0.53030
C2280       C  0.98167003  0.61031712  0.77425876     0.79600
O2281       O  0.94642285  0.56861253  0.81090205    -0.54190
C2282       C  0.52518312  0.57657869  0.80680127     0.79570
C2283       C  0.51444646  0.63578577  0.82578267     0.81960
Cd2284     Cd  0.99243846  0.59676550  0.80297775     1.37460
O2285       O  0.00014871  0.60671840  0.77614951    -0.53030
O2286       O  0.52486290  0.63955976  0.81309247    -0.51840
C2287       C  0.94355191  0.54891276  0.80429995     0.81920
O2288       O  0.99278527  0.61507243  0.82757695    -0.54210
O2289       O  0.97036320  0.61113055  0.78583958    -0.52660
O2290       O  0.00704655  0.57141684  0.81569249    -0.52650
O2291       O  0.96295744  0.55141952  0.79765126    -0.51820
O2292       O  0.55337052  0.74066622  0.88818046    -0.53030
C2293       C  0.59652910  0.71237736  0.90810031     0.79600
O2294       O  0.57795194  0.70471756  0.85680531    -0.54190
C2295       C  0.55842084  0.75543560  0.87699677     0.79570
C2296       C  0.63554392  0.77095045  0.87650256     0.81960
Cd2297     Cd  0.58404244  0.72756393  0.88045590     1.37470
O2298       O  0.58023473  0.71927961  0.90763354    -0.53030
O2299       O  0.61971650  0.77110560  0.88546270    -0.51840
C2300       C  0.55475067  0.68694125  0.85922617     0.81920
O2301       O  0.62779508  0.75053473  0.86900338    -0.54210
O2302       O  0.60434374  0.70914658  0.89575418    -0.52660
O2303       O  0.57411403  0.75635784  0.86750666    -0.52650
O2304       O  0.54548911  0.68666269  0.87188184    -0.51830
C2305       C  0.53943929  0.66839695  0.84787023    -0.08490
C2306       C  0.52729874  0.65369648  0.83782807    -0.10050
C2307       C  0.67993570  0.81496802  0.87417384    -0.08490
C2308       C  0.66087256  0.79357015  0.87483477    -0.10050
C2309       C  0.90267637  0.00188784  0.80348622    -0.08490
C2310       C  0.91965926  0.52434559  0.80429945    -0.10050
C2311       C  0.78669715  0.90449353  0.84079765    -0.08490
C2312       C  0.80129490  0.90446207  0.83169266    -0.10050
C2313       C  0.95546522  0.92866026  0.80712869    -0.08490
C2314       C  0.93283543  0.92152494  0.80727557    -0.10050
C2315       C  0.54437480  0.54716779  0.80868988    -0.08490
C2316       C  0.53880055  0.56338686  0.80815177    -0.10050
C2317       C  0.64424653  0.90331269  0.87019017    -0.08490
C2318       C  0.66564016  0.90689951  0.86906163    -0.10050
C2319       C  0.54863745  0.77217505  0.87546288    -0.08490
C2320       C  0.54637431  0.79058401  0.87429397    -0.10050
C2321       C  0.55192228  0.91569330  0.84564945    -0.08490
C2322       C  0.55179743  0.93013563  0.83643053    -0.10050
C2323       C  0.97213624  0.61039528  0.75952616    -0.08490
C2324       C  0.96275327  0.60441076  0.74716594    -0.10050
C2325       C  0.88037681  0.57661470  0.66434544    -0.08490
C2326       C  0.89461699  0.57604149  0.67357446    -0.10050
C2327       C  0.85536810  0.87391993  0.74742266    -0.08490
C2328       C  0.84943963  0.87883585  0.75925640    -0.10050
C2329       C  0.89997741  0.48095751  0.70142440    -0.08490
C2330       C  0.89466373  0.95890469  0.70096686    -0.10050
C2331       C  0.87732282  0.67278224  0.63683637    -0.08490
C2332       C  0.88286855  0.69490564  0.63735363    -0.10050
C2333       C  0.88889125  0.81988659  0.66456074    -0.08490
C2334       C  0.88800610  0.83361806  0.67395474    -0.10050
C2335       C  0.74313430  0.58490486  0.63698285    -0.08490
C2336       C  0.76040185  0.58081988  0.63786292    -0.10050
C2337       C  0.77379509  0.70008720  0.63466732    -0.08490
C2338       C  0.79597416  0.71785417  0.63426684    -0.10050
C2339       C  0.58017593  0.49896765  0.76287058    -0.08490
C2340       C  0.58601268  0.50870006  0.75060946    -0.10050
C2341       C  0.53223328  0.56929667  0.70184379    -0.08490
C2342       C  0.51507224  0.57356645  0.70117248    -0.10050
C2343       C  0.98059610  0.93501649  0.70479815    -0.08490
C2344       C  0.00269164  0.95295997  0.70436221    -0.10050
C2345       C  0.63010374  0.57002688  0.67409392    -0.08490
C2346       C  0.64490622  0.58310322  0.66431930    -0.10050
C2347       C  0.62007966  0.71670069  0.93354394    -0.08490
C2348       C  0.60791975  0.71129428  0.92200228    -0.10050
C2349       C  0.71695400  0.74500052  0.01127359    -0.08490
C2350       C  0.70162348  0.74548017  0.00287237    -0.10050
C2351       C  0.71909796  0.62751625  0.03398563    -0.08490
C2352       C  0.72393221  0.64935431  0.03467876    -0.10050
C2353       C  0.74810012  0.94727551  0.92540674    -0.08490
C2354       C  0.75233715  0.94128744  0.91342858    -0.10050
C2355       C  0.70990088  0.86503655  0.97453631    -0.08490
C2356       C  0.70305376  0.84255080  0.97481472    -0.10050
C2357       C  0.71983924  0.00700885  0.00625055    -0.08490
C2358       C  0.72163939  0.99352588  0.99718852    -0.10050
C2359       C  0.85665618  0.73590720  0.03748915    -0.08490
C2360       C  0.83933920  0.73989739  0.03630742    -0.10050
C2361       C  0.83112360  0.62357364  0.03693725    -0.08490
C2362       C  0.80888692  0.60599408  0.03690808    -0.10050
C2363       C  0.51751767  0.83511563  0.93036364    -0.08490
C2364       C  0.52329032  0.84612346  0.91846295    -0.10050
C2365       C  0.58505583  0.75988246  0.97868280    -0.08490
C2366       C  0.56907249  0.76571170  0.97745402    -0.10050
C2367       C  0.62724318  0.89649272  0.97261998    -0.08490
C2368       C  0.60456125  0.88048381  0.97384286    -0.10050
C2369       C  0.95844254  0.74806518  0.01185654    -0.08490
C2370       C  0.97304394  0.76310344  0.00264182    -0.10050
C2371       C  0.80688043  0.54904421  0.59167211    -0.08490
C2372       C  0.79546883  0.54286477  0.57985696    -0.10050
C2373       C  0.71232658  0.98017186  0.49599593    -0.08490
C2374       C  0.72593657  0.99508958  0.50561616    -0.10050
C2375       C  0.68812550  0.64814287  0.58939949    -0.08490
C2376       C  0.69345709  0.65875044  0.57737177    -0.10050
C2377       C  0.72405625  0.61062426  0.53116166    -0.08490
C2378       C  0.72829451  0.59349137  0.53213871    -0.10050
C2379       C  0.71338499  0.86435784  0.46920782    -0.08490
C2380       C  0.70928317  0.88159815  0.46837818    -0.10050
C2381       C  0.71902684  0.73036002  0.50480957    -0.08490
C2382       C  0.71829837  0.74476031  0.49581002    -0.10050
C2383       C  0.92339397  0.77227898  0.57852459    -0.08490
C2384       C  0.91872832  0.77802174  0.59048713    -0.10050
C2385       C  0.84382411  0.62521427  0.53395153    -0.08490
C2386       C  0.86140753  0.64743416  0.53457257    -0.10050
C2387       C  0.81577390  0.72797259  0.53164654    -0.08490
C2388       C  0.83800238  0.73375791  0.53137072    -0.10050
C2389       C  0.57678060  0.82914932  0.46599295    -0.08490
C2390       C  0.59439988  0.85136250  0.46647334    -0.10050
C2391       C  0.59951201  0.74172705  0.46873860    -0.08490
C2392       C  0.62166956  0.74728505  0.46838611    -0.10050
C2393       C  0.96262017  0.73901545  0.50552047    -0.08490
C2394       C  0.97603299  0.73763452  0.49615328    -0.10050
C2395       C  0.91684428  0.67323439  0.08305692    -0.08490
C2396       C  0.91185278  0.66158134  0.09472843    -0.10050
C2397       C  0.88386649  0.56931790  0.17399907    -0.08490
C2398       C  0.88378282  0.58456240  0.16540327    -0.10050
C2399       C  0.80274501  0.77486725  0.09382399    -0.08490
C2400       C  0.79167850  0.77015743  0.08195411    -0.10050
C2401       C  0.87020981  0.72007194  0.13979331    -0.08490
C2402       C  0.87534759  0.70357327  0.14074043    -0.10050
C2403       C  0.89475217  0.93181033  0.19977820    -0.08490
C2404       C  0.89020478  0.94870292  0.19861439    -0.10050
C2405       C  0.88796794  0.83233265  0.17486918    -0.08490
C2406       C  0.87327948  0.81723146  0.16572250    -0.10050
C2407       C  0.68315566  0.53836478  0.07901729    -0.08490
C2408       C  0.67806996  0.54234314  0.09130627    -0.10050
C2409       C  0.75484040  0.68690357  0.13833702    -0.08490
C2410       C  0.73805413  0.66443799  0.13756619    -0.10050
C2411       C  0.76535239  0.57959708  0.13854330    -0.08490
C2412       C  0.78774152  0.58593557  0.13840409    -0.10050
C2413       C  0.52602263  0.48508188  0.20068659    -0.08490
C2414       C  0.50885676  0.96270831  0.20043007    -0.10050
C2415       C  0.00183113  0.57182768  0.19849360    -0.08490
C2416       C  0.97959226  0.56592067  0.19903095    -0.10050
C2417       C  0.62544085  0.57463539  0.17212701    -0.08490
C2418       C  0.63895744  0.57255208  0.16323060    -0.10050
C2419       C  0.85648162  0.99213051  0.24438866    -0.08490
C2420       C  0.85134291  0.98033057  0.25601352    -0.10050
C2421       C  0.74471204  0.81589080  0.42322890    -0.08490
C2422       C  0.75017831  0.82655552  0.41122410    -0.10050
C2423       C  0.79490846  0.89447335  0.33757956    -0.08490
C2424       C  0.80976353  0.90864944  0.32816014    -0.10050
C2425       C  0.97301069  0.87970976  0.25708017    -0.08490
C2426       C  0.96145884  0.87491986  0.24537668    -0.10050
C2427       C  0.92660541  0.91131198  0.30231564    -0.08490
C2428       C  0.90928157  0.91529355  0.30124674    -0.10050
C2429       C  0.63525451  0.93110011  0.40909419    -0.08490
C2430       C  0.64596407  0.93653538  0.42111140    -0.10050
C2431       C  0.68078642  0.89731747  0.36249760    -0.08490
C2432       C  0.69748913  0.89243552  0.36345762    -0.10050
C2433       C  0.54734375  0.90652356  0.32855008    -0.08490
C2434       C  0.56207148  0.90580228  0.33731782    -0.10050
C2435       C  0.51297351  0.70506586  0.42246525    -0.08490
C2436       C  0.51795443  0.70016189  0.41037005    -0.10050
C2437       C  0.66458920  0.77683445  0.36550575    -0.08490
C2438       C  0.64214129  0.75978655  0.36606535    -0.10050
C2439       C  0.55684305  0.78623280  0.36317739    -0.08490
C2440       C  0.56300372  0.80852833  0.36344212    -0.10050
C2441       C  0.58614975  0.61447600  0.25624348    -0.08490
C2442       C  0.59094323  0.61008149  0.24398309    -0.10050
C2443       C  0.93853390  0.52884000  0.30016422    -0.08490
C2444       C  0.96077543  0.54637598  0.29966486    -0.10050
C2445       C  0.54910570  0.52475686  0.30163773    -0.08490
C2446       C  0.54366109  0.00267786  0.30142180    -0.10050
C2447       C  0.55100437  0.64716168  0.32875732    -0.08490
C2448       C  0.54942762  0.66064713  0.33792813    -0.10050
loop_ 
_geom_bond_atom_site_label_1 
_geom_bond_atom_site_label_2 
_geom_bond_distance 
_geom_bond_site_symmetry_2 
_ccdc_geom_bond_type 
O1            C4   1.265       .  A
O1           Cd6   2.439       .  S
C2           O11   1.263   1_655  A
C2            O7   1.268       .  A
C2         C1832   1.431       .  S
O3            C9   1.270       .  A
O3           Cd6   2.498       .  S
C4           O12   1.265       .  A
C4          C605   1.434       .  S
C5           O10   1.267       .  A
C5            O8   1.263       .  A
C5          C611   1.434       .  S
Cd6          O13   2.406       .  S
Cd6          O12   2.476       .  S
Cd6          O11   2.425       .  S
Cd6           O7   2.470   1_455  S
Cd6          O10   2.465       .  S
Cd6           O8   2.439       .  S
C9           O13   1.261       .  A
C9          C609   1.433       .  S
O14          C17   1.268       .  A
O14         Cd19   2.473       .  S
C15          O24   1.266       .  A
C15          O20   1.265       .  A
C15         C600   1.438       .  S
O16          C22   1.270       .  A
O16         Cd19   2.499       .  S
C17          O25   1.263       .  A
C17         C602   1.431       .  S
C18          O23   1.267       .  A
C18          O21   1.264       .  A
C18         C612   1.434       .  S
Cd19         O26   2.401       .  S
Cd19         O25   2.427       .  S
Cd19         O24   2.481       .  S
Cd19         O20   2.449       .  S
Cd19         O23   2.464       .  S
Cd19         O21   2.443       .  S
C22          O26   1.261       .  A
C22         C603   1.432       .  S
O27          C30   1.266       .  A
O27         Cd32   2.455       .  S
C28          O37   1.263       .  A
C28          O33   1.268       .  A
C28         C604   1.433       .  S
O29          C35   1.266       .  A
O29         Cd32   2.466       .  S
C30          O38   1.265       .  A
C30         C593   1.438       .  S
C31          O36   1.269       .  A
C31          O34   1.261       .  A
C31         C595   1.431       .  S
Cd32         O39   2.448       .  S
Cd32         O38   2.474       .  S
Cd32         O37   2.436       .  S
Cd32         O33   2.473       .  S
Cd32         O36   2.498       .  S
Cd32         O34   2.398       .  S
C35          O39   1.264       .  A
C35         C598   1.435       .  S
O40          C43   1.266       .  A
O40         Cd45   2.447       .  S
C41          O50   1.263       .  A
C41          O46   1.268       .  A
C41         C610   1.433       .  S
O42          C48   1.270       .  A
O42         Cd45   2.499       .  S
C43          O51   1.264       .  A
C43         C589   1.435       .  S
C44          O47   1.264       .  A
C44        O1273   1.266       .  A
C44         C597   1.435       .  S
Cd45         O52   2.400       .  S
Cd45         O51   2.465       .  S
Cd45         O49   2.465       .  S
Cd45       O1274   2.435       .  S
Cd45       O1270   2.473       .  S
Cd45       O1271   2.449       .  S
O46       Cd1269   2.473       .  S
O47       Cd1269   2.449       .  S
C48          O52   1.261       .  A
C48         C591   1.432       .  S
O49        C1268   1.266       .  A
O50       Cd1269   2.435       .  S
O53          C56   1.266       .  A
O53         Cd58   2.454       .  S
C54          O63   1.263       .  A
C54          O59   1.269       .  A
C54         C596   1.432       .  S
O55          C61   1.266       .  A
O55         Cd58   2.459       .  S
C56          O64   1.265       .  A
C56         C586   1.437       .  S
C57          O62   1.269       .  A
C57          O60   1.261       .  A
C57         C601   1.431       .  S
Cd58         O65   2.445       .  S
Cd58         O64   2.469       .  S
Cd58         O63   2.426       .  S
Cd58         O59   2.476       .  S
Cd58         O62   2.492       .  S
Cd58         O60   2.402       .  S
C61          O65   1.264       .  A
C61         C587   1.433       .  S
O66          C69   1.269       .  A
O66         Cd71   2.481       .  S
C67          O76   1.264       .  A
C67          O72   1.267       .  A
C67         C584   1.437       .  S
O68          C74   1.267       .  A
O68         Cd71   2.456       .  S
C69          O77   1.262       .  A
C69         C592   1.432       .  S
C70          O75   1.270   1_545  A
C70          O73   1.262   1_545  A
C70         C607   1.430       .  S
Cd71         O78   2.445       .  S
Cd71         O77   2.421       .  S
Cd71         O76   2.462       .  S
Cd71         O72   2.457       .  S
Cd71        O687   2.487       .  S
Cd71        O685   2.402       .  S
O73        Cd683   2.402       .  S
C74          O78   1.265       .  A
C74         C588   1.433       .  S
O75        Cd683   2.487       .  S
O79          C82   1.265       .  A
O79         Cd84   2.434       .  S
C80          O89   1.263       .  A
C80          O85   1.268       .  A
C80         C577   1.430   1_545  S
O81          C87   1.270       .  A
O81         Cd84   2.498       .  S
C82          O90   1.266       .  A
C82         C606   1.434       .  S
C83          O88   1.267       .  A
C83          O86   1.263       .  A
C83         C581   1.431       .  S
Cd84         O91   2.399       .  S
Cd84         O90   2.476       .  S
Cd84         O89   2.425       .  S
Cd84         O85   2.465       .  S
Cd84         O88   2.460       .  S
Cd84         O86   2.431       .  S
C87          O91   1.261       .  A
C87        C1803   1.432       .  S
O92          C95   1.268       .  A
O92         Cd97   2.463       .  S
C93         O102   1.266       .  A
C93          O98   1.265       .  A
C93         C572   1.434       .  S
O94         C100   1.270       .  A
O94         Cd97   2.499       .  S
C95         O103   1.263       .  A
C95         C574   1.429       .  S
C96         O101   1.267       .  A
C96          O99   1.263       .  A
C96         C582   1.431       .  S
Cd97        O104   2.401       .  S
Cd97        O103   2.425       .  S
Cd97        O102   2.476       .  S
Cd97         O98   2.435       .  S
Cd97        O101   2.459       .  S
Cd97         O99   2.429       .  S
C100        O104   1.261       .  A
C100        C575   1.432       .  S
O105        C108   1.269       .  A
O105       Cd110   2.477       .  S
C106        O115   1.265       .  A
C106        O111   1.267       .  A
C106        C590   1.435       .  S
O107        C113   1.267       .  A
O107       Cd110   2.446       .  S
C108        O116   1.262       .  A
C108        C567   1.432       .  S
C109        O114   1.269       .  A
C109        O112   1.262       .  A
C109       C1802   1.429       .  S
Cd110       O117   2.432       .  S
Cd110       O116   2.422       .  S
Cd110       O115   2.460       .  S
Cd110       O111   2.451       .  S
Cd110       O114   2.483       .  S
Cd110       O112   2.399       .  S
C113        O117   1.264       .  A
C113        C569   1.429       .  S
O118        C121   1.267       .  A
O118       Cd123   2.452       .  S
C119        O128   1.262       .  A
C119        O124   1.269       .  A
C119        C565   1.432       .  S
O120        C126   1.267       .  A
O120       Cd123   2.450       .  S
C121        O129   1.265       .  A
C121        C563   1.436       .  S
C122        O127   1.269       .  A
C122        O125   1.262       .  A
C122        C573   1.428       .  S
Cd123       O130   2.431       .  S
Cd123       O129   2.463       .  S
Cd123       O128   2.424       .  S
Cd123       O124   2.476       .  S
Cd123       O127   2.485       .  S
Cd123       O125   2.395       .  S
C126        O130   1.264       .  A
C126        C570   1.429       .  S
O131        C134   1.266       .  A
O131       Cd136   2.449       .  S
C132        O141   1.263       .  A
C132        O137   1.268       .  A
C132        C576   1.433       .  S
O133        C139   1.267       .  A
O133       Cd136   2.464       .  S
C134        O142   1.265       .  A
C134        C560   1.437       .  S
C135        O140   1.270       .  A
C135        O138   1.261       .  A
C135        C566   1.431       .  S
Cd136       O143   2.445       .  S
Cd136       O142   2.470       .  S
Cd136       O141   2.433       .  S
Cd136       O137   2.472       .  S
Cd136       O140   2.498       .  S
Cd136       O138   2.396       .  S
C139        O143   1.264       .  A
C139        C562   1.434       .  S
O144        C759   1.267       .  A
O144       Cd149   2.450       .  S
C145        O154   1.263       .  A
C145        O150   1.269       .  A
C145        C580   1.433       .  S
O146        C152   1.270       .  A
O146       Cd761   2.497       .  S
C147        O155   1.265       .  A
C147        O756   1.267       .  A
C147        C583   1.437       .  S
C148        O153   1.267       .  A
C148        O151   1.264       .  A
C148        C561   1.434       .  S
Cd149       O154   2.431       .  S
Cd149       O150   2.472       .  S
Cd149       O153   2.462       .  S
Cd149       O151   2.444       .  S
Cd149       O758   2.497   1_545  S
Cd149       O768   2.394   1_545  S
Cd149       O767   2.467   1_545  S
C152        O156   1.261       .  A
C152        C568   1.431       .  S
O155       Cd761   2.467       .  S
O156       Cd761   2.394       .  S
O157        C160   1.268       .  A
O157       Cd162   2.477       .  S
C158        O167   1.265       .  A
C158        O163   1.265       .  A
C158        C599   1.438       .  S
O159        C165   1.270       .  A
O159       Cd162   2.503       .  S
C160        O168   1.263       .  A
C160        C553   1.432       .  S
C161        O166   1.267       .  A
C161        O164   1.264       .  A
C161        C558   1.439       .  S
Cd162       O169   2.406       .  S
Cd162       O168   2.427       .  S
Cd162       O167   2.482       .  S
Cd162       O163   2.452       .  S
Cd162      O1390   2.476       .  S
Cd162      O1388   2.459   1_455  S
O164      Cd1386   2.459       .  S
C165        O169   1.261       .  A
C165        C555   1.433       .  S
O166      Cd1386   2.476       .  S
O170        C173   1.269       .  A
O170       Cd175   2.479       .  S
C171        O180   1.266       .  A
C171        O176   1.266       .  A
C171        C547   1.442       .  S
O172        C178   1.267       .  A
O172       Cd175   2.476       .  S
C173        O181   1.262       .  A
C173        C550   1.433       .  S
C174        O179   1.270       .  A
C174        O177   1.261       .  A
C174        C552   1.433       .  S
Cd175       O182   2.460       .  S
Cd175       O181   2.427       .  S
Cd175       O180   2.487       .  S
Cd175       O176   2.462       .  S
Cd175       O179   2.502       .  S
Cd175       O177   2.402       .  S
C178        O182   1.264       .  A
C178        C557   1.440       .  S
O183        C186   1.268       .  A
O183       Cd188   2.478       .  S
C184        O193   1.264       .  A
C184        O189   1.266       .  A
C184        C585   1.437       .  S
O185        C191   1.269       .  A
O185       Cd188   2.498       .  S
C186        O194   1.263       .  A
C186        C556   1.434       .  S
C187        O192   1.266       .  A
C187        O190   1.264       .  A
C187        C546   1.436       .  S
Cd188       O195   2.404       .  S
Cd188       O194   2.437       .  S
Cd188       O193   2.472       .  S
Cd188       O189   2.454       .  S
Cd188       O192   2.467       .  S
Cd188       O190   2.453       .  S
C191        O195   1.261       .  A
C191        C543   1.432       .  S
O196        C199   1.266       .  A
O196       Cd201   2.455       .  S
C197        O206   1.263       .  A
C197        O202   1.268       .  A
C197        C551   1.434       .  S
O198        C204   1.269       .  A
O198       Cd201   2.499       .  S
C199        O207   1.265       .  A
C199        C540   1.438       .  S
C200        O205   1.266       .  A
C200        O203   1.264       .  A
C200        C545   1.436       .  S
Cd201       O208   2.401       .  S
Cd201       O207   2.474       .  S
Cd201       O206   2.437       .  S
Cd201       O202   2.476       .  S
Cd201       O205   2.466       .  S
Cd201       O203   2.454       .  S
C204        O208   1.261       .  A
C204        C541   1.432       .  S
O209        C212   1.268       .  A
O209       Cd214   2.480       .  S
C210        O219   1.265       .  A
C210        O215   1.266       .  A
C210        C594   1.438       .  S
O211        C217   1.269       .  A
O211       Cd214   2.494       .  S
C212        O220   1.262       .  A
C212        C544   1.432       .  S
C213        O218   1.266       .  A
C213        O216   1.265       .  A
C213        C537   1.438       .  S
Cd214       O221   2.410       .  S
Cd214       O220   2.426       .  S
Cd214       O219   2.471       .  S
Cd214       O215   2.460       .  S
Cd214       O218   2.468       .  S
Cd214       O216   2.459       .  S
C217        O221   1.261       .  A
C217        C554   1.432       .  S
O222        C225   1.267       .  A
O222       Cd227   2.464       .  S
C223        O232   1.263       .  A
C223        O228   1.269       .  A
C223        C542   1.432       .  S
O224        C230   1.269       .  A
O224       Cd227   2.494       .  S
C225        O233   1.265       .  A
C225        C536   1.440       .  S
C226        O231   1.266       .  A
C226        O229   1.265       .  A
C226       C1150   1.438   1_545  S
Cd227       O234   2.407       .  S
Cd227       O233   2.472       .  S
Cd227       O232   2.424       .  S
Cd227       O228   2.481       .  S
Cd227       O231   2.466       .  S
Cd227       O229   2.461       .  S
C230        O234   1.261       .  A
C230        C549   1.432       .  S
O235        C238   1.270       .  A
O235       Cd240   2.476       .  S
C236        O245   1.265       .  A
C236        O241   1.268       .  A
C236        C527   1.437       .  S
O237       C1467   1.268   1_455  A
O237       Cd240   2.456       .  S
C238        O246   1.263       .  A
C238        C530   1.432       .  S
C239        O244   1.271       .  A
C239        O242   1.262       .  A
C239        C532   1.429       .  S
Cd240       O246   2.421       .  S
Cd240       O245   2.464       .  S
Cd240       O241   2.451       .  S
Cd240       O244   2.489       .  S
Cd240       O242   2.390       .  S
Cd240      O1471   2.434   1_455  S
C243        O247   1.265       .  A
C243       O1461   1.268       .  A
C243        C534   1.432   1_556  S
O247      Cd1464   2.434       .  S
O248        C251   1.269       .  A
O248       Cd253   2.481       .  S
C249        O258   1.265       .  A
C249        O254   1.267       .  A
C249        C559   1.437       .  S
O250        C256   1.270       .  A
O250       Cd253   2.487       .  S
C251        O259   1.262       .  A
C251        C523   1.434       .  S
C252        O257   1.267       .  A
C252        O255   1.264       .  A
C252        C533   1.433       .  S
Cd253       O260   2.399       .  S
Cd253       O259   2.425       .  S
Cd253       O258   2.468       .  S
Cd253       O254   2.455       .  S
Cd253       O257   2.456       .  S
Cd253       O255   2.442       .  S
C256        O260   1.262       .  A
C256        C525   1.429       .  S
O261        C264   1.266       .  A
O261       Cd266   2.446       .  S
C262        O271   1.263       .  A
C262        O267   1.268       .  A
C262        C531   1.430       .  S
O263        C269   1.270       .  A
O263       Cd266   2.497       .  S
C264        O272   1.266       .  A
C264        C517   1.438       .  S
C265        O270   1.267       .  A
C265        O268   1.264       .  A
C265        C522   1.432       .  S
Cd266       O273   2.400       .  S
Cd266       O272   2.479       .  S
Cd266       O271   2.424       .  S
Cd266       O267   2.471       .  S
Cd266       O270   2.458       .  S
Cd266       O268   2.438       .  S
C269        O273   1.261       .  A
C269        C519   1.431       .  S
O274        C277   1.265       .  A
O274       Cd279   2.437       .  S
C275        O284   1.263       .  A
C275        O280   1.268       .  A
C275        C526   1.430       .  S
O276        C282   1.266       .  A
O276       Cd279   2.463       .  S
C277        O285   1.265       .  A
C277        C571   1.434       .  S
C278        O283   1.269       .  A
C278        O281   1.261       .  A
C278        C515   1.432       .  S
Cd279       O286   2.438       .  S
Cd279       O285   2.478       .  S
Cd279       O284   2.426       .  S
Cd279       O280   2.468       .  S
Cd279       O283   2.499       .  S
Cd279       O281   2.403       .  S
C282        O286   1.263       .  A
C282       C1133   1.433       .  S
O287        C290   1.269       .  A
O287       Cd292   2.471       .  S
C288        O297   1.265       .  A
C288        O293   1.267       .  A
C288        C511   1.439       .  S
O289        C295   1.267       .  A
O289       Cd292   2.470       .  S
C290        O298   1.263       .  A
C290        C520   1.432       .  S
C291        O296   1.270       .  A
C291        O294   1.261       .  A
C291        C529   1.431       .  S
Cd292       O299   2.450       .  S
Cd292       O298   2.431       .  S
Cd292       O297   2.472       .  S
Cd292       O293   2.454       .  S
Cd292       O296   2.498       .  S
Cd292       O294   2.394       .  S
C295        O299   1.264       .  A
C295        C514   1.437   1_556  S
O300        C303   1.268       .  A
O300       Cd305   2.469       .  S
C301        O310   1.265       .  A
C301        O306   1.267       .  A
C301        C564   1.436       .  S
O302        C308   1.271       .  A
O302       Cd305   2.502       .  S
C303        O311   1.264       .  A
C303        C516   1.433       .  S
C304        O309   1.268       .  A
C304        O307   1.264       .  A
C304        C513   1.437       .  S
Cd305       O312   2.399       .  S
Cd305       O311   2.433       .  S
Cd305       O310   2.465       .  S
Cd305       O306   2.447       .  S
Cd305       O309   2.472       .  S
Cd305       O307   2.446       .  S
C308        O312   1.261       .  A
C308        C524   1.433       .  S
O313        C316   1.265       .  A
O313       Cd318   2.456       .  S
C314        O323   1.263       .  A
C314        O319   1.268       .  A
C314        C505   1.433       .  S
O315        C321   1.265       .  A
O315       Cd318   2.468       .  S
C316        O936   1.265       .  A
C316        C504   1.438       .  S
C317        O322   1.268       .  A
C317        O320   1.261       .  A
C317       C1732   1.433       .  S
Cd318       O325   2.463       .  S
Cd318       O323   2.430       .  S
Cd318       O319   2.479       .  S
Cd318       O936   2.476       .  S
Cd318       O934   2.497   1_545  S
Cd318       O932   2.414   1_545  S
O320       Cd930   2.414       .  S
C321        O325   1.264       .  A
C321        C509   1.437       .  S
O322       Cd930   2.497       .  S
O324        C928   1.265       .  A
O324       Cd930   2.476       .  S
O326        C329   1.266       .  A
O326       Cd331   2.460       .  S
C327        O336   1.262       .  A
C327        O332   1.268       .  A
C327        C499   1.432       .  S
O328        C334   1.269       .  A
O328       Cd331   2.492       .  S
C329        O337   1.264       .  A
C329        C539   1.438       .  S
C330        O335   1.266       .  A
C330        O333   1.265       .  A
C330        C510   1.437       .  S
Cd331       O338   2.414       .  S
Cd331       O337   2.469       .  S
Cd331       O336   2.425       .  S
Cd331       O332   2.480       .  S
Cd331       O335   2.464       .  S
Cd331       O333   2.460       .  S
C334        O338   1.262       .  A
C334        C501   1.433       .  S
O339        C342   1.266       .  A
O339       Cd344   2.463       .  S
C340        O349   1.263       .  A
C340        O345   1.268       .  A
C340        C502   1.433       .  S
O341        C347   1.270       .  A
O341       Cd344   2.509       .  S
C342        O350   1.266       .  A
C342        C548   1.442       .  S
C343        O348   1.267       .  A
C343        O346   1.265       .  A
C343        C497   1.445       .  S
Cd344       O351   2.407       .  S
Cd344       O350   2.488       .  S
Cd344       O349   2.427       .  S
Cd344       O345   2.478       .  S
Cd344       O348   2.489       .  S
Cd344       O346   2.475       .  S
C347        O351   1.261       .  A
C347        C496   1.435       .  S
O352        C355   1.266       .  A
O352       Cd357   2.469       .  S
C353        O362   1.263       .  A
C353        O358   1.269       .  A
C353        C507   1.433       .  S
O354        C360   1.267       .  A
O354       Cd357   2.489       .  S
C355        O363   1.265       .  A
C355        C491   1.444       .  S
C356        O361   1.270       .  A
C356        O359   1.261       .  A
C356        C494   1.435       .  S
Cd357       O364   2.475       .  S
Cd357       O363   2.488       .  S
Cd357       O362   2.425       .  S
Cd357       O358   2.482       .  S
Cd357       O361   2.507       .  S
Cd357       O359   2.410       .  S
C360        O364   1.265       .  A
C360        C498   1.445       .  S
O365        C368   1.267       .  A
O365       Cd370   2.464       .  S
C366        O375   1.263       .  A
C366        O371   1.269       .  A
C366        C495   1.436       .  S
O367        C373   1.269       .  A
O367       Cd370   2.497       .  S
C368        O376   1.264       .  A
C368        C535   1.440       .  S
C369        O374   1.266       .  A
C369        O372   1.265       .  A
C369        C489   1.438       .  S
Cd370       O377   2.401       .  S
Cd370       O376   2.475       .  S
Cd370       O375   2.437       .  S
Cd370       O371   2.485       .  S
Cd370       O374   2.468       .  S
Cd370       O372   2.461       .  S
C373        O377   1.261       .  A
C373        C500   1.431       .  S
O378        C381   1.266       .  A
O378       Cd383   2.460       .  S
C379        O388   1.263       .  A
C379        O384   1.268       .  A
C379        C493   1.436   1_545  S
O380        C386   1.266       .  A
O380       Cd383   2.472       .  S
C381        O389   1.265       .  A
C381        C488   1.439       .  S
C382        O387   1.269       .  A
C382       O1609   1.261       .  A
C382        C506   1.432   1_655  S
Cd383       O390   2.458       .  S
Cd383       O389   2.480       .  S
Cd383       O388   2.441       .  S
Cd383       O384   2.483       .  S
Cd383       O385   2.404       .  S
Cd383      O1611   2.498       .  S
O385       C1606   1.261       .  A
C386        O390   1.264       .  A
C386        C490   1.438       .  S
O387      Cd1607   2.498       .  S
O391        C394   1.267       .  A
O391       Cd396   2.455       .  S
C392        O401   1.263       .  A
C392        O397   1.269       .  A
C392        C481   1.436       .  S
O393        C399   1.270       .  A
O393       Cd396   2.500       .  S
C394       O1626   1.265       .  A
C394        C528   1.437       .  S
C395        O400   1.267       .  A
C395        O398   1.265       .  A
C395        C485   1.436       .  S
Cd396       O403   2.404       .  S
Cd396       O401   2.436       .  S
Cd396       O397   2.482       .  S
Cd396       O400   2.466       .  S
Cd396       O398   2.453       .  S
Cd396      O1626   2.465       .  S
C399        O403   1.262       .  A
C399        C484   1.434       .  S
O402       C1618   1.265       .  A
O402      Cd1620   2.465       .  S
O404       C1019   1.266       .  A
O404       Cd409   2.456       .  S
C405        O414   1.263       .  A
C405        O410   1.268       .  A
C405       C1701   1.435       .  S
O406        C412   1.266       .  A
O406       Cd409   2.469       .  S
C407        O415   1.265       .  A
C407       O1016   1.266       .  A
C407        C503   1.438       .  S
C408        O413   1.269       .  A
C408        O411   1.261       .  A
C408        C479   1.432       .  S
Cd409       O416   2.453       .  S
Cd409       O414   2.440   1_455  S
Cd409       O410   2.481   1_455  S
Cd409      O1027   2.480       .  S
Cd409      O1025   2.499       .  S
Cd409      O1023   2.406       .  S
O411      Cd1021   2.406   1_545  S
C412        O416   1.264       .  A
C412        C486   1.436       .  S
O413      Cd1021   2.499   1_545  S
O415      Cd1021   2.480       .  S
O417        C420   1.269       .  A
O417       Cd422   2.481       .  S
C418        O427   1.265       .  A
C418        O423   1.266       .  A
C418        C492   1.444       .  S
O419        C425   1.270       .  A
O419       Cd422   2.507       .  S
C420        O428   1.263       .  A
C420        C473   1.433       .  S
C421        O426   1.267       .  A
C421        O424   1.265       .  A
C421        C476   1.444       .  S
Cd422       O429   2.404       .  S
Cd422       O428   2.428       .  S
Cd422       O427   2.487       .  S
Cd422       O423   2.468       .  S
Cd422       O426   2.488       .  S
Cd422       O424   2.470       .  S
C425        O429   1.261       .  A
C425        C478   1.434       .  S
O430        C433   1.268       .  A
O430       Cd435   2.475       .  S
C431        O440   1.265       .  A
C431        O436   1.266       .  A
C431        C518   1.438       .  S
O432        C438   1.267       .  A
O432       Cd435   2.489       .  S
C433        O441   1.263       .  A
C433        C471   1.433       .  S
C434        O439   1.270       .  A
C434        O437   1.260       .  A
C434        C482   1.435       .  S
Cd435       O442   2.473       .  S
Cd435       O441   2.432       .  S
Cd435       O440   2.477       .  S
Cd435       O436   2.456       .  S
Cd435       O439   2.511       .  S
Cd435       O437   2.408       .  S
C438        O442   1.264       .  A
C438        C475   1.444       .  S
O443        C446   1.268       .  A
O443      Cd1672   2.483   1_455  S
C444        O453   1.264       .  A
C444        O449   1.265       .  A
C444        C487   1.439       .  S
O445        C451   1.268       .  A
O445       Cd448   2.495       .  S
C446       O1678   1.262       .  A
C446        C480   1.433       .  S
C447        O450   1.265       .  A
C447       O1676   1.264   1_455  A
C447        C470   1.438       .  S
Cd448       O455   2.418       .  S
Cd448       O454   2.428       .  S
Cd448       O453   2.476       .  S
Cd448       O449   2.461       .  S
Cd448       O452   2.470       .  S
Cd448      O1667   2.483       .  S
Cd448      O1674   2.466       .  S
O450      Cd1672   2.466   1_455  S
C451        O455   1.262       .  A
C451        C474   1.433       .  S
O452       C1671   1.264       .  A
O454       C1670   1.262       .  A
O456        C459   1.269       .  A
O456       Cd461   2.492       .  S
C457        O466   1.264       .  A
C457        O462   1.267       .  A
C457        C512   1.439       .  S
O458        C464   1.264       .  A
O458       Cd461   2.458       .  S
C459        O467   1.262       .  A
C459        C483   1.434       .  S
C460        O465   1.268       .  A
C460        O463   1.262       .  A
C460        C472   1.433       .  S
Cd461       O468   2.475       .  S
Cd461       O467   2.426       .  S
Cd461       O466   2.469       .  S
Cd461       O462   2.470       .  S
Cd461       O465   2.487       .  S
Cd461       O463   2.422       .  S
C464        O468   1.265       .  A
C464        C469   1.438       .  S
C469        C470   1.207       .  T
C471        C472   1.205       .  T
C473       C1086   1.205       .  T
C474       C1085   1.205       .  T
C475        C476   1.211       .  T
C477       C1629   1.435       .  S
C477        C478   1.206       .  T
C479        C480   1.204       .  T
C481        C482   1.206       .  T
C483        C484   1.205       .  T
C485        C486   1.207       .  T
C487        C488   1.208       .  T
C489        C490   1.207       .  T
C491        C492   1.211       .  T
C493       C1106   1.206       .  T
C494       C1105   1.206       .  T
C495        C496   1.206       .  T
C497        C498   1.212       .  T
C499        C500   1.204       .  T
C501        C502   1.205       .  T
C503        C504   1.208   1_565  T
C505        C506   1.204       .  T
C507        C508   1.205       .  T
C508       C1541   1.433       .  S
C509        C510   1.207       .  T
C511        C512   1.208       .  T
C513        C514   1.207       .  T
C515        C516   1.204       .  T
C517        C518   1.208       .  T
C519        C520   1.204       .  T
C521        C894   1.433       .  S
C521        C522   1.205   1_554  T
C523        C524   1.205       .  T
C525        C526   1.203       .  T
C527        C528   1.207       .  T
C529        C530   1.204       .  T
C531        C532   1.203       .  T
C533        C534   1.205       .  T
C535        C536   1.209       .  T
C537        C538   1.207       .  T
C538        C838   1.438       .  S
C539        C540   1.208       .  T
C541        C542   1.204       .  T
C543        C544   1.204       .  T
C545        C546   1.206       .  T
C547        C548   1.210       .  T
C549        C550   1.204       .  T
C551        C552   1.205       .  T
C553        C554   1.204       .  T
C555        C556   1.205       .  T
C557        C558   1.209       .  T
C559        C560   1.207       .  T
C561        C562   1.206       .  T
C563        C564   1.206       .  T
C565        C566   1.204       .  T
C567        C568   1.204       .  T
C569        C570   1.202       .  T
C571        C572   1.205       .  T
C573        C574   1.202       .  T
C575        C576   1.204       .  T
C577       C1190   1.202       .  T
C578       C1333   1.429   1_455  S
C578       C1189   1.202       .  T
C579       C1311   1.432       .  S
C579        C580   1.204       .  T
C581        C582   1.204       .  T
C583        C584   1.207       .  T
C585        C586   1.207       .  T
C587        C588   1.205       .  T
C589        C590   1.206       .  T
C591        C592   1.204       .  T
C593        C594   1.208       .  T
C595        C596   1.204       .  T
C597        C598   1.206       .  T
C599        C600   1.208       .  T
C601        C602   1.203       .  T
C603        C604   1.204       .  T
C605        C606   1.205       .  T
C607        C608   1.203       .  T
C608       C1226   1.431       .  S
C609       C1222   1.205       .  T
C610       C1221   1.205       .  T
C611        C612   1.205       .  T
O613        C616   1.265       .  A
O613       Cd618   2.439       .  S
C614        O623   1.263   1_655  A
C614        O619   1.268       .  A
C614       C2444   1.431       .  S
O615        C621   1.270       .  A
O615       Cd618   2.498       .  S
C616        O624   1.265       .  A
C616       C1217   1.434       .  S
C617        O622   1.267       .  A
C617        O620   1.263       .  A
C617       C1223   1.434       .  S
Cd618       O625   2.406       .  S
Cd618       O624   2.476       .  S
Cd618       O623   2.425       .  S
Cd618       O619   2.470   1_455  S
Cd618       O622   2.465       .  S
Cd618       O620   2.439       .  S
C621        O625   1.261       .  A
C621       C1221   1.433       .  S
O626        C629   1.268       .  A
O626       Cd631   2.473       .  S
C627        O636   1.266       .  A
C627        O632   1.265       .  A
C627       C1212   1.438       .  S
O628        C634   1.270       .  A
O628       Cd631   2.499       .  S
C629        O637   1.263       .  A
C629       C1214   1.431       .  S
C630        O635   1.267       .  A
C630        O633   1.264       .  A
C630       C1224   1.434       .  S
Cd631       O638   2.401       .  S
Cd631       O637   2.427       .  S
Cd631       O636   2.481       .  S
Cd631       O632   2.449       .  S
Cd631       O635   2.464       .  S
Cd631       O633   2.443       .  S
C634        O638   1.261       .  A
C634       C1215   1.432       .  S
O639        C642   1.266       .  A
O639       Cd644   2.455       .  S
C640        O649   1.263       .  A
C640        O645   1.268       .  A
C640       C1216   1.433       .  S
O641        C647   1.266       .  A
O641       Cd644   2.466       .  S
C642        O650   1.265       .  A
C642       C1205   1.438       .  S
C643        O648   1.269       .  A
C643        O646   1.261       .  A
C643       C1207   1.431       .  S
Cd644       O651   2.448       .  S
Cd644       O650   2.474       .  S
Cd644       O649   2.436       .  S
Cd644       O645   2.473       .  S
Cd644       O648   2.498       .  S
Cd644       O646   2.398       .  S
C647        O651   1.264       .  A
C647       C1210   1.435       .  S
O652        C655   1.266       .  A
O652       Cd657   2.447       .  S
C653        O662   1.263       .  A
C653        O658   1.268       .  A
C653       C1222   1.433   1_565  S
O654        C660   1.270       .  A
O654       Cd657   2.499       .  S
C655        O663   1.264       .  A
C655       C1201   1.435       .  S
C656       O1885   1.266       .  A
C656        O659   1.264       .  A
C656       C1209   1.435       .  S
Cd657       O664   2.400       .  S
Cd657       O663   2.465       .  S
Cd657      O1886   2.435       .  S
Cd657      O1882   2.473       .  S
Cd657       O661   2.465       .  S
Cd657      O1883   2.449       .  S
O658      Cd1881   2.473       .  S
O659      Cd1881   2.449       .  S
C660        O664   1.261       .  A
C660       C1203   1.432       .  S
O661       C1880   1.266       .  A
O662      Cd1881   2.435       .  S
O665        C668   1.266       .  A
O665       Cd670   2.454       .  S
C666        O675   1.263       .  A
C666        O671   1.269       .  A
C666       C1208   1.432       .  S
O667        C673   1.266       .  A
O667       Cd670   2.459       .  S
C668        O676   1.265       .  A
C668       C1198   1.437       .  S
C669        O674   1.269       .  A
C669        O672   1.261       .  A
C669       C1213   1.431       .  S
Cd670       O677   2.445       .  S
Cd670       O676   2.469       .  S
Cd670       O675   2.426       .  S
Cd670       O671   2.476       .  S
Cd670       O674   2.492       .  S
Cd670       O672   2.402       .  S
C673        O677   1.264       .  A
C673       C1199   1.433       .  S
O678        C681   1.269       .  A
O678       Cd683   2.481       .  S
C679        O688   1.264       .  A
C679        O684   1.267       .  A
C679       C1196   1.437       .  S
O680        C686   1.267       .  A
O680       Cd683   2.456       .  S
C681        O689   1.262       .  A
C681       C1204   1.432       .  S
C682        O687   1.270       .  A
C682        O685   1.262       .  A
C682       C1219   1.430       .  S
Cd683       O690   2.445       .  S
Cd683       O689   2.421       .  S
Cd683       O688   2.462       .  S
Cd683       O684   2.457       .  S
C686        O690   1.265       .  A
C686       C1200   1.433       .  S
O691        C694   1.265       .  A
O691       Cd696   2.434       .  S
C692        O701   1.263       .  A
C692        O697   1.268       .  A
C692       C1189   1.430       .  S
O693        C699   1.270       .  A
O693       Cd696   2.498       .  S
C694        O702   1.266       .  A
C694       C1218   1.434       .  S
C695        O700   1.267       .  A
C695        O698   1.263       .  A
C695       C1193   1.431       .  S
Cd696       O703   2.399       .  S
Cd696       O702   2.476       .  S
Cd696       O701   2.425       .  S
Cd696       O697   2.465       .  S
Cd696       O700   2.460       .  S
Cd696       O698   2.431       .  S
C699        O703   1.261       .  A
C699       C2415   1.432       .  S
O704        C707   1.268       .  A
O704       Cd709   2.463       .  S
C705        O714   1.266       .  A
C705        O710   1.265       .  A
C705       C1184   1.434       .  S
O706        C712   1.270       .  A
O706       Cd709   2.499       .  S
C707        O715   1.263       .  A
C707       C1186   1.429       .  S
C708        O713   1.267       .  A
C708        O711   1.263       .  A
C708       C1194   1.431       .  S
Cd709       O716   2.401       .  S
Cd709       O715   2.425       .  S
Cd709       O714   2.476       .  S
Cd709       O710   2.435       .  S
Cd709       O713   2.459       .  S
Cd709       O711   2.429       .  S
C712        O716   1.261       .  A
C712       C1187   1.432       .  S
O717        C720   1.269       .  A
O717       Cd722   2.477       .  S
C718        O727   1.265       .  A
C718        O723   1.267       .  A
C718       C1202   1.435       .  S
O719        C725   1.267       .  A
O719       Cd722   2.446       .  S
C720        O728   1.262       .  A
C720       C1179   1.432       .  S
C721        O726   1.269       .  A
C721        O724   1.262       .  A
C721       C2414   1.429       .  S
Cd722       O729   2.432       .  S
Cd722       O728   2.422       .  S
Cd722       O727   2.460       .  S
Cd722       O723   2.451       .  S
Cd722       O726   2.483       .  S
Cd722       O724   2.399       .  S
C725        O729   1.264       .  A
C725       C1181   1.429       .  S
O730        C733   1.267       .  A
O730       Cd735   2.452       .  S
C731        O740   1.262       .  A
C731        O736   1.269       .  A
C731       C1177   1.432       .  S
O732        C738   1.267       .  A
O732       Cd735   2.450       .  S
C733        O741   1.265       .  A
C733       C1175   1.436       .  S
C734        O739   1.269       .  A
C734        O737   1.262       .  A
C734       C1185   1.428       .  S
Cd735       O742   2.431       .  S
Cd735       O741   2.463       .  S
Cd735       O740   2.424       .  S
Cd735       O736   2.476       .  S
Cd735       O739   2.485       .  S
Cd735       O737   2.395       .  S
C738        O742   1.264       .  A
C738       C1182   1.429       .  S
O743        C746   1.266       .  A
O743       Cd748   2.449       .  S
C744        O753   1.263       .  A
C744        O749   1.268       .  A
C744       C1188   1.433       .  S
O745        C751   1.267       .  A
O745       Cd748   2.464       .  S
C746        O754   1.265       .  A
C746       C1172   1.437       .  S
C747        O752   1.270       .  A
C747        O750   1.261       .  A
C747       C1178   1.431       .  S
Cd748       O755   2.445       .  S
Cd748       O754   2.470       .  S
Cd748       O753   2.433       .  S
Cd748       O749   2.472       .  S
Cd748       O752   2.498       .  S
Cd748       O750   2.396       .  S
C751        O755   1.264       .  A
C751       C1174   1.434       .  S
O756       Cd761   2.450       .  S
C757        O766   1.263       .  A
C757        O762   1.269       .  A
C757       C1192   1.433       .  S
O758        C764   1.270       .  A
C759        O767   1.265   1_545  A
C759       C1195   1.437   1_545  S
C760        O765   1.267       .  A
C760        O763   1.264       .  A
C760       C1173   1.434       .  S
Cd761       O766   2.431       .  S
Cd761       O762   2.472       .  S
Cd761       O765   2.462       .  S
Cd761       O763   2.444       .  S
C764        O768   1.261       .  A
C764       C1180   1.431       .  S
O769        C772   1.268       .  A
O769       Cd774   2.477       .  S
C770        O779   1.265       .  A
C770        O775   1.265       .  A
C770       C1211   1.438       .  S
O771        C777   1.270       .  A
O771       Cd774   2.503       .  S
C772        O780   1.263       .  A
C772       C1165   1.432       .  S
C773        O778   1.267       .  A
C773        O776   1.264       .  A
C773       C1170   1.439       .  S
Cd774       O781   2.406       .  S
Cd774       O780   2.427       .  S
Cd774       O779   2.482       .  S
Cd774       O775   2.452       .  S
Cd774      O2002   2.476       .  S
Cd774      O2000   2.459   1_455  S
O776      Cd1998   2.459       .  S
C777        O781   1.261       .  A
C777       C1167   1.433       .  S
O778      Cd1998   2.476       .  S
O782        C785   1.269       .  A
O782       Cd787   2.479       .  S
C783        O792   1.266       .  A
C783        O788   1.266       .  A
C783       C1159   1.442       .  S
O784        C790   1.267       .  A
O784       Cd787   2.476       .  S
C785        O793   1.262       .  A
C785       C1162   1.433       .  S
C786        O791   1.270       .  A
C786        O789   1.261       .  A
C786       C1164   1.433       .  S
Cd787       O794   2.460       .  S
Cd787       O793   2.427       .  S
Cd787       O792   2.487       .  S
Cd787       O788   2.462       .  S
Cd787       O791   2.502       .  S
Cd787       O789   2.402       .  S
C790        O794   1.264       .  A
C790       C1169   1.440       .  S
O795        C798   1.268       .  A
O795       Cd800   2.478       .  S
C796        O805   1.264       .  A
C796        O801   1.266       .  A
C796       C1197   1.437       .  S
O797        C803   1.269       .  A
O797       Cd800   2.498       .  S
C798        O806   1.263       .  A
C798       C1168   1.434       .  S
C799        O804   1.266       .  A
C799        O802   1.264       .  A
C799       C1158   1.436       .  S
Cd800       O807   2.404       .  S
Cd800       O806   2.437       .  S
Cd800       O805   2.472       .  S
Cd800       O801   2.454       .  S
Cd800       O804   2.467       .  S
Cd800       O802   2.453       .  S
C803        O807   1.261       .  A
C803       C1155   1.432       .  S
O808        C811   1.266       .  A
O808       Cd813   2.455       .  S
C809        O818   1.263       .  A
C809        O814   1.268       .  A
C809       C1163   1.434       .  S
O810        C816   1.269       .  A
O810       Cd813   2.499       .  S
C811        O819   1.265       .  A
C811       C1152   1.438       .  S
C812        O817   1.266       .  A
C812        O815   1.264       .  A
C812       C1157   1.436       .  S
Cd813       O820   2.401       .  S
Cd813       O819   2.474       .  S
Cd813       O818   2.437       .  S
Cd813       O814   2.476       .  S
Cd813       O817   2.466       .  S
Cd813       O815   2.454       .  S
C816        O820   1.261       .  A
C816       C1153   1.432       .  S
O821        C824   1.268       .  A
O821       Cd826   2.480       .  S
C822        O831   1.265       .  A
C822        O827   1.266       .  A
C822       C1206   1.438       .  S
O823        C829   1.269       .  A
O823       Cd826   2.494       .  S
C824        O832   1.262       .  A
C824       C1156   1.432       .  S
C825        O830   1.266       .  A
C825        O828   1.265       .  A
C825       C1149   1.438       .  S
Cd826       O833   2.410       .  S
Cd826       O832   2.426       .  S
Cd826       O831   2.471       .  S
Cd826       O827   2.460       .  S
Cd826       O830   2.468       .  S
Cd826       O828   2.459       .  S
C829        O833   1.261       .  A
C829       C1166   1.432       .  S
O834        C837   1.267       .  A
O834       Cd839   2.464       .  S
C835        O844   1.263       .  A
C835        O840   1.269       .  A
C835       C1154   1.432       .  S
O836        C842   1.269       .  A
O836       Cd839   2.494       .  S
C837        O845   1.265       .  A
C837       C1148   1.440       .  S
C838        O843   1.266       .  A
C838        O841   1.265       .  A
Cd839       O846   2.407       .  S
Cd839       O845   2.472       .  S
Cd839       O844   2.424       .  S
Cd839       O840   2.481       .  S
Cd839       O843   2.466       .  S
Cd839       O841   2.461       .  S
C842        O846   1.261       .  A
C842       C1161   1.432       .  S
O847        C850   1.270       .  A
O847       Cd852   2.476       .  S
C848        O857   1.265       .  A
C848        O853   1.268       .  A
C848       C1139   1.437       .  S
O849       C2079   1.268   1_455  A
O849       Cd852   2.456       .  S
C850        O858   1.263       .  A
C850       C1142   1.432       .  S
C851        O856   1.271       .  A
C851        O854   1.262       .  A
C851       C1144   1.429       .  S
Cd852      O2083   2.434   1_455  S
Cd852       O858   2.421       .  S
Cd852       O857   2.464       .  S
Cd852       O853   2.451       .  S
Cd852       O856   2.489       .  S
Cd852       O854   2.390       .  S
C855       O2073   1.268       .  A
C855        O859   1.265       .  A
C855       C1146   1.432   1_556  S
O859      Cd2076   2.434       .  S
O860        C863   1.269       .  A
O860       Cd865   2.481       .  S
C861        O870   1.265       .  A
C861        O866   1.267       .  A
C861       C1171   1.437       .  S
O862        C868   1.270       .  A
O862       Cd865   2.487       .  S
C863        O871   1.262       .  A
C863       C1135   1.434       .  S
C864        O869   1.267       .  A
C864        O867   1.264       .  A
C864       C1145   1.433       .  S
Cd865       O872   2.399       .  S
Cd865       O871   2.425       .  S
Cd865       O870   2.468       .  S
Cd865       O866   2.455       .  S
Cd865       O869   2.456       .  S
Cd865       O867   2.442       .  S
C868        O872   1.262       .  A
C868       C1137   1.429       .  S
O873        C876   1.266       .  A
O873       Cd878   2.446       .  S
C874        O883   1.263       .  A
C874        O879   1.268       .  A
C874       C1143   1.430       .  S
O875        C881   1.270       .  A
O875       Cd878   2.497       .  S
C876        O884   1.266       .  A
C876       C1129   1.438       .  S
C877        O882   1.267       .  A
C877        O880   1.264       .  A
C877       C1134   1.432       .  S
Cd878       O885   2.400       .  S
Cd878       O884   2.479       .  S
Cd878       O883   2.424       .  S
Cd878       O879   2.471       .  S
Cd878       O882   2.458       .  S
Cd878       O880   2.438       .  S
C881        O885   1.261       .  A
C881       C1131   1.431       .  S
O886        C889   1.265       .  A
O886       Cd891   2.437       .  S
C887        O896   1.263       .  A
C887        O892   1.268       .  A
C887       C1138   1.430       .  S
O888        C894   1.266       .  A
O888       Cd891   2.463       .  S
C889        O897   1.265       .  A
C889       C1183   1.434       .  S
C890        O895   1.269       .  A
C890        O893   1.261       .  A
C890       C1127   1.432       .  S
Cd891       O898   2.438       .  S
Cd891       O897   2.478       .  S
Cd891       O896   2.426       .  S
Cd891       O892   2.468       .  S
Cd891       O895   2.499       .  S
Cd891       O893   2.403       .  S
C894        O898   1.263       .  A
O899        C902   1.269       .  A
O899       Cd904   2.471       .  S
C900        O909   1.265       .  A
C900        O905   1.267       .  A
C900       C1123   1.439       .  S
O901        C907   1.267       .  A
O901       Cd904   2.470       .  S
C902        O910   1.263       .  A
C902       C1132   1.432       .  S
C903        O908   1.270       .  A
C903        O906   1.261       .  A
C903       C1141   1.431       .  S
Cd904       O911   2.450       .  S
Cd904       O910   2.431       .  S
Cd904       O909   2.472       .  S
Cd904       O905   2.454       .  S
Cd904       O908   2.498       .  S
Cd904       O906   2.394       .  S
C907        O911   1.264       .  A
C907       C1126   1.437   1_556  S
O912        C915   1.268       .  A
O912       Cd917   2.469       .  S
C913        O922   1.265       .  A
C913        O918   1.267       .  A
C913       C1176   1.436       .  S
O914        C920   1.271       .  A
O914       Cd917   2.502       .  S
C915        O923   1.264       .  A
C915       C1128   1.433       .  S
C916        O921   1.268       .  A
C916        O919   1.264       .  A
C916       C1125   1.437       .  S
Cd917       O924   2.399       .  S
Cd917       O923   2.433       .  S
Cd917       O922   2.465       .  S
Cd917       O918   2.447       .  S
Cd917       O921   2.472       .  S
Cd917       O919   2.446       .  S
C920        O924   1.261       .  A
C920       C1136   1.433       .  S
O925        C928   1.265       .  A
O925       Cd930   2.456       .  S
C926        O935   1.263       .  A
C926        O931   1.268       .  A
C926       C1117   1.433       .  S
O927        C933   1.265       .  A
O927       Cd930   2.468       .  S
C928       C1116   1.438       .  S
C929        O934   1.268       .  A
C929        O932   1.261       .  A
C929       C2344   1.433       .  S
Cd930       O937   2.463       .  S
Cd930       O935   2.430       .  S
Cd930       O931   2.479       .  S
C933        O937   1.264       .  A
C933       C1121   1.437       .  S
O938        C941   1.266       .  A
O938       Cd943   2.460       .  S
C939        O948   1.262       .  A
C939        O944   1.268       .  A
C939       C1111   1.432       .  S
O940        C946   1.269       .  A
O940       Cd943   2.492       .  S
C941        O949   1.264       .  A
C941       C1151   1.438       .  S
C942        O947   1.266       .  A
C942        O945   1.265       .  A
C942       C1122   1.437       .  S
Cd943       O950   2.414       .  S
Cd943       O949   2.469       .  S
Cd943       O948   2.425       .  S
Cd943       O944   2.480       .  S
Cd943       O947   2.464       .  S
Cd943       O945   2.460       .  S
C946        O950   1.262       .  A
C946       C1113   1.433       .  S
O951        C954   1.266       .  A
O951       Cd956   2.463       .  S
C952        O961   1.263       .  A
C952        O957   1.268       .  A
C952       C1114   1.433       .  S
O953        C959   1.270       .  A
O953       Cd956   2.509       .  S
C954        O962   1.266       .  A
C954       C1160   1.442       .  S
C955        O960   1.267       .  A
C955        O958   1.265       .  A
C955       C1109   1.445       .  S
Cd956       O963   2.407       .  S
Cd956       O962   2.488       .  S
Cd956       O961   2.427       .  S
Cd956       O957   2.478       .  S
Cd956       O960   2.489       .  S
Cd956       O958   2.475       .  S
C959        O963   1.261       .  A
C959       C1108   1.435       .  S
O964        C967   1.266       .  A
O964       Cd969   2.469       .  S
C965        O974   1.263       .  A
C965        O970   1.269       .  A
C965       C1119   1.433       .  S
O966        C972   1.267       .  A
O966       Cd969   2.489       .  S
C967        O975   1.265       .  A
C967       C1103   1.444       .  S
C968        O973   1.270       .  A
C968        O971   1.261       .  A
C968       C1106   1.435       .  S
Cd969       O976   2.475       .  S
Cd969       O975   2.488       .  S
Cd969       O974   2.425       .  S
Cd969       O970   2.482       .  S
Cd969       O973   2.507       .  S
Cd969       O971   2.410       .  S
C972        O976   1.265       .  A
C972       C1110   1.445       .  S
O977        C980   1.267       .  A
O977       Cd982   2.464       .  S
C978        O987   1.263       .  A
C978        O983   1.269       .  A
C978       C1107   1.436       .  S
O979        C985   1.269       .  A
O979       Cd982   2.497       .  S
C980        O988   1.264       .  A
C980       C1147   1.440       .  S
C981        O986   1.266       .  A
C981        O984   1.265       .  A
C981       C1101   1.438       .  S
Cd982       O989   2.401       .  S
Cd982       O988   2.475       .  S
Cd982       O987   2.437       .  S
Cd982       O983   2.485       .  S
Cd982       O986   2.468       .  S
Cd982       O984   2.461       .  S
C985        O989   1.261       .  A
C985       C1112   1.431       .  S
O990        C993   1.266       .  A
O990       Cd995   2.460       .  S
C991       O1000   1.263       .  A
C991        O996   1.268       .  A
C991       C1105   1.436       .  S
O992        C998   1.266       .  A
O992       Cd995   2.472       .  S
C993       O1001   1.265       .  A
C993       C1100   1.439       .  S
C994        O999   1.269       .  A
C994       O2221   1.261       .  A
C994       C1118   1.432   1_655  S
Cd995      O1002   2.458       .  S
Cd995      O1001   2.480       .  S
Cd995      O1000   2.441       .  S
Cd995       O996   2.483       .  S
Cd995      O2223   2.498       .  S
Cd995       O997   2.404       .  S
O997       C2218   1.261       .  A
C998       O1002   1.264       .  A
C998       C1102   1.438       .  S
O999      Cd2219   2.498       .  S
O1003      C1006   1.267       .  A
O1003     Cd1008   2.455       .  S
C1004      O1013   1.263       .  A
C1004      O1009   1.269       .  A
C1004      C1093   1.436       .  S
O1005      C1011   1.270       .  A
O1005     Cd1008   2.500       .  S
C1006      O2238   1.265       .  A
C1006      C1140   1.437       .  S
C1007      O1012   1.267       .  A
C1007      O1010   1.265       .  A
C1007      C1097   1.436       .  S
Cd1008     O1015   2.404       .  S
Cd1008     O2238   2.465       .  S
Cd1008     O1013   2.436       .  S
Cd1008     O1009   2.482       .  S
Cd1008     O1012   2.466       .  S
Cd1008     O1010   2.453       .  S
C1011      O1015   1.262       .  A
C1011      C1096   1.434       .  S
O1014      C2230   1.265       .  A
O1014     Cd2232   2.465       .  S
O1016     Cd1021   2.456       .  S
C1017      O1026   1.263       .  A
C1017      O1022   1.268       .  A
C1017      C2313   1.435       .  S
O1018      C1024   1.266       .  A
O1018     Cd1021   2.469       .  S
C1019      O1027   1.265       .  A
C1019      C1115   1.438       .  S
C1020      O1025   1.269       .  A
C1020      O1023   1.261       .  A
C1020      C1091   1.432       .  S
Cd1021     O1028   2.453       .  S
Cd1021     O1026   2.440   1_455  S
Cd1021     O1022   2.481   1_455  S
C1024      O1028   1.264       .  A
C1024      C1098   1.436       .  S
O1029      C1032   1.269       .  A
O1029     Cd1034   2.481       .  S
C1030      O1039   1.265       .  A
C1030      O1035   1.266       .  A
C1030      C1104   1.444       .  S
O1031      C1037   1.270       .  A
O1031     Cd1034   2.507       .  S
C1032      O1040   1.263       .  A
C1032      C1085   1.433   1_565  S
C1033      O1038   1.267       .  A
C1033      O1036   1.265       .  A
C1033      C1088   1.444       .  S
Cd1034     O1041   2.404       .  S
Cd1034     O1040   2.428       .  S
Cd1034     O1039   2.487       .  S
Cd1034     O1035   2.468       .  S
Cd1034     O1038   2.488       .  S
Cd1034     O1036   2.470       .  S
C1037      O1041   1.261       .  A
C1037      C1090   1.434       .  S
O1042      C1045   1.268       .  A
O1042     Cd1047   2.475       .  S
C1043      O1052   1.265       .  A
C1043      O1048   1.266       .  A
C1043      C1130   1.438       .  S
O1044      C1050   1.267       .  A
O1044     Cd1047   2.489       .  S
C1045      O1053   1.263       .  A
C1045      C1083   1.433       .  S
C1046      O1051   1.270       .  A
C1046      O1049   1.260       .  A
C1046      C1094   1.435       .  S
Cd1047     O1054   2.473       .  S
Cd1047     O1053   2.432       .  S
Cd1047     O1052   2.477       .  S
Cd1047     O1048   2.456       .  S
Cd1047     O1051   2.511       .  S
Cd1047     O1049   2.408       .  S
C1050      O1054   1.264       .  A
C1050      C1087   1.444       .  S
O1055      C1058   1.268       .  A
O1055     Cd2284   2.483   1_455  S
C1056      O1065   1.264       .  A
C1056      O1061   1.265       .  A
C1056      C1099   1.439       .  S
O1057      C1063   1.268       .  A
O1057     Cd1060   2.495       .  S
C1058      O2290   1.262       .  A
C1058      C1092   1.433       .  S
C1059      O2288   1.264   1_455  A
C1059      O1062   1.265       .  A
C1059      C1082   1.438       .  S
Cd1060     O2279   2.483       .  S
Cd1060     O1067   2.418       .  S
Cd1060     O1066   2.428       .  S
Cd1060     O1065   2.476       .  S
Cd1060     O1061   2.461       .  S
Cd1060     O1064   2.470       .  S
Cd1060     O2286   2.466       .  S
O1062     Cd2284   2.466   1_455  S
C1063      O1067   1.262       .  A
C1063      C1086   1.433       .  S
O1064      C2283   1.264       .  A
O1066      C2282   1.262       .  A
O1068      C1071   1.269       .  A
O1068     Cd1073   2.492       .  S
C1069      O1078   1.264       .  A
C1069      O1074   1.267       .  A
C1069      C1124   1.439       .  S
O1070      C1076   1.264       .  A
O1070     Cd1073   2.458       .  S
C1071      O1079   1.262       .  A
C1071      C1095   1.434       .  S
C1072      O1077   1.268       .  A
C1072      O1075   1.262       .  A
C1072      C1084   1.433       .  S
Cd1073     O1080   2.475       .  S
Cd1073     O1079   2.426       .  S
Cd1073     O1078   2.469       .  S
Cd1073     O1074   2.470       .  S
Cd1073     O1077   2.487       .  S
Cd1073     O1075   2.422       .  S
C1076      O1080   1.265       .  A
C1076      C1081   1.438       .  S
C1081      C1082   1.207       .  T
C1083      C1084   1.205       .  T
C1087      C1088   1.211       .  T
C1089      C2241   1.435       .  S
C1089      C1090   1.206       .  T
C1091      C1092   1.204       .  T
C1093      C1094   1.206       .  T
C1095      C1096   1.205       .  T
C1097      C1098   1.207       .  T
C1099      C1100   1.208       .  T
C1101      C1102   1.207       .  T
C1103      C1104   1.211       .  T
C1107      C1108   1.206       .  T
C1109      C1110   1.212       .  T
C1111      C1112   1.204       .  T
C1113      C1114   1.205       .  T
C1115      C1116   1.208       .  T
C1117      C1118   1.204       .  T
C1119      C1120   1.205       .  T
C1120      C2153   1.433       .  S
C1121      C1122   1.207       .  T
C1123      C1124   1.208       .  T
C1125      C1126   1.207       .  T
C1127      C1128   1.204       .  T
C1129      C1130   1.208       .  T
C1131      C1132   1.204       .  T
C1133      C1134   1.205   1_544  T
C1135      C1136   1.205       .  T
C1137      C1138   1.203       .  T
C1139      C1140   1.207       .  T
C1141      C1142   1.204       .  T
C1143      C1144   1.203       .  T
C1145      C1146   1.205       .  T
C1147      C1148   1.209       .  T
C1149      C1150   1.207       .  T
C1151      C1152   1.208       .  T
C1153      C1154   1.204       .  T
C1155      C1156   1.204       .  T
C1157      C1158   1.206       .  T
C1159      C1160   1.210       .  T
C1161      C1162   1.204       .  T
C1163      C1164   1.205       .  T
C1165      C1166   1.204       .  T
C1167      C1168   1.205       .  T
C1169      C1170   1.209       .  T
C1171      C1172   1.207       .  T
C1173      C1174   1.206       .  T
C1175      C1176   1.206       .  T
C1177      C1178   1.204       .  T
C1179      C1180   1.204       .  T
C1181      C1182   1.202       .  T
C1183      C1184   1.205       .  T
C1185      C1186   1.202       .  T
C1187      C1188   1.204       .  T
C1190      C1945   1.429   1_455  S
C1191      C1923   1.432       .  S
C1191      C1192   1.204       .  T
C1193      C1194   1.204       .  T
C1195      C1196   1.207       .  T
C1197      C1198   1.207       .  T
C1199      C1200   1.205       .  T
C1201      C1202   1.206       .  T
C1203      C1204   1.204       .  T
C1205      C1206   1.208       .  T
C1207      C1208   1.204       .  T
C1209      C1210   1.206       .  T
C1211      C1212   1.208       .  T
C1213      C1214   1.203       .  T
C1215      C1216   1.204       .  T
C1217      C1218   1.205       .  T
C1219      C1220   1.203       .  T
C1220      C1838   1.431       .  S
C1223      C1224   1.205       .  T
O1225      C1228   1.265       .  A
O1225     Cd1230   2.439       .  S
C1226      O1235   1.263       .  A
C1226      O1231   1.268       .  A
O1227      C1233   1.270       .  A
O1227     Cd1230   2.498       .  S
C1228      O1236   1.265       .  A
C1228      C1829   1.434       .  S
C1229      O1234   1.267       .  A
C1229      O1232   1.263       .  A
C1229      C1835   1.434       .  S
Cd1230     O1237   2.406       .  S
Cd1230     O1236   2.476       .  S
Cd1230     O1235   2.425       .  S
Cd1230     O1231   2.470       .  S
Cd1230     O1234   2.465       .  S
Cd1230     O1232   2.439       .  S
C1233      O1237   1.261       .  A
C1233      C1833   1.433       .  S
O1238      C1241   1.268       .  A
O1238     Cd1243   2.473       .  S
C1239      O1248   1.266       .  A
C1239      O1244   1.265       .  A
C1239      C1824   1.438       .  S
O1240      C1246   1.270       .  A
O1240     Cd1243   2.499       .  S
C1241      O1249   1.263       .  A
C1241      C1826   1.431       .  S
C1242      O1247   1.267       .  A
C1242      O1245   1.264       .  A
C1242      C1836   1.434       .  S
Cd1243     O1250   2.401       .  S
Cd1243     O1249   2.427       .  S
Cd1243     O1248   2.481       .  S
Cd1243     O1244   2.449       .  S
Cd1243     O1247   2.464       .  S
Cd1243     O1245   2.443       .  S
C1246      O1250   1.261       .  A
C1246      C1827   1.432       .  S
O1251      C1254   1.266       .  A
O1251     Cd1256   2.455       .  S
C1252      O1261   1.263       .  A
C1252      O1257   1.268       .  A
C1252      C1828   1.433       .  S
O1253      C1259   1.266       .  A
O1253     Cd1256   2.466       .  S
C1254      O1262   1.265       .  A
C1254      C1817   1.438       .  S
C1255      O1260   1.269       .  A
C1255      O1258   1.261       .  A
C1255      C1819   1.431       .  S
Cd1256     O1263   2.448       .  S
Cd1256     O1262   2.474       .  S
Cd1256     O1261   2.436       .  S
Cd1256     O1257   2.473       .  S
Cd1256     O1260   2.498       .  S
Cd1256     O1258   2.398       .  S
C1259      O1263   1.264       .  A
C1259      C1822   1.435       .  S
O1264      C1267   1.266   1_455  A
O1264     Cd1269   2.447       .  S
C1265      O1274   1.263       .  A
C1265      O1270   1.268       .  A
C1265      C1834   1.433       .  S
O1266      C1272   1.270       .  A
O1266     Cd1269   2.499   1_655  S
C1267      O1275   1.264       .  A
C1267      C1813   1.435       .  S
C1268      O1271   1.264       .  A
C1268      C1821   1.435       .  S
Cd1269     O1276   2.400   1_455  S
Cd1269     O1275   2.465   1_455  S
Cd1269     O1273   2.465       .  S
C1272      O1276   1.261       .  A
C1272      C1815   1.432       .  S
O1277      C1280   1.266       .  A
O1277     Cd1282   2.454       .  S
C1278      O1287   1.263       .  A
C1278      O1283   1.269       .  A
C1278      C1820   1.432       .  S
O1279      C1285   1.266       .  A
O1279     Cd1282   2.459       .  S
C1280      O1288   1.265       .  A
C1280      C1810   1.437       .  S
C1281      O1286   1.269       .  A
C1281      O1284   1.261       .  A
C1281      C1825   1.431       .  S
Cd1282     O1289   2.445       .  S
Cd1282     O1288   2.469       .  S
Cd1282     O1287   2.426       .  S
Cd1282     O1283   2.476       .  S
Cd1282     O1286   2.492       .  S
Cd1282     O1284   2.402       .  S
C1285      O1289   1.264       .  A
C1285      C1811   1.433       .  S
O1290      C1293   1.269       .  A
O1290     Cd1295   2.481       .  S
C1291      O1300   1.264       .  A
C1291      O1296   1.267       .  A
C1291      C1808   1.437       .  S
O1292      C1298   1.267       .  A
O1292     Cd1295   2.456       .  S
C1293      O1301   1.262       .  A
C1293      C1816   1.432       .  S
C1294      O1299   1.270   1_545  A
C1294      O1297   1.262   1_545  A
C1294      C1831   1.430       .  S
Cd1295     O1302   2.445       .  S
Cd1295     O1301   2.421       .  S
Cd1295     O1300   2.462       .  S
Cd1295     O1296   2.457       .  S
Cd1295     O1911   2.487       .  S
Cd1295     O1909   2.402       .  S
O1297     Cd1907   2.402       .  S
C1298      O1302   1.265       .  A
C1298      C1812   1.433       .  S
O1299     Cd1907   2.487       .  S
O1303      C1306   1.265       .  A
O1303     Cd1308   2.434       .  S
C1304      O1313   1.263       .  A
C1304      O1309   1.268       .  A
C1304      C1801   1.430   1_545  S
O1305      C1311   1.270       .  A
O1305     Cd1308   2.498       .  S
C1306      O1314   1.266       .  A
C1306      C1830   1.434       .  S
C1307      O1312   1.267       .  A
C1307      O1310   1.263       .  A
C1307      C1805   1.431       .  S
Cd1308     O1315   2.399       .  S
Cd1308     O1314   2.476       .  S
Cd1308     O1313   2.425       .  S
Cd1308     O1309   2.465       .  S
Cd1308     O1312   2.460       .  S
Cd1308     O1310   2.431       .  S
C1311      O1315   1.261       .  A
O1316      C1319   1.268       .  A
O1316     Cd1321   2.463       .  S
C1317      O1326   1.266       .  A
C1317      O1322   1.265       .  A
C1317      C1796   1.434       .  S
O1318      C1324   1.270       .  A
O1318     Cd1321   2.499       .  S
C1319      O1327   1.263       .  A
C1319      C1798   1.429       .  S
C1320      O1325   1.267       .  A
C1320      O1323   1.263       .  A
C1320      C1806   1.431       .  S
Cd1321     O1328   2.401       .  S
Cd1321     O1327   2.425       .  S
Cd1321     O1326   2.476       .  S
Cd1321     O1322   2.435       .  S
Cd1321     O1325   2.459       .  S
Cd1321     O1323   2.429       .  S
C1324      O1328   1.261       .  A
C1324      C1799   1.432       .  S
O1329      C1332   1.269       .  A
O1329     Cd1334   2.477       .  S
C1330      O1339   1.265       .  A
C1330      O1335   1.267       .  A
C1330      C1814   1.435       .  S
O1331      C1337   1.267       .  A
O1331     Cd1334   2.446       .  S
C1332      O1340   1.262       .  A
C1332      C1791   1.432       .  S
C1333      O1338   1.269       .  A
C1333      O1336   1.262       .  A
Cd1334     O1341   2.432       .  S
Cd1334     O1340   2.422       .  S
Cd1334     O1339   2.460       .  S
Cd1334     O1335   2.451       .  S
Cd1334     O1338   2.483       .  S
Cd1334     O1336   2.399       .  S
C1337      O1341   1.264       .  A
C1337      C1793   1.429       .  S
O1342      C1345   1.267       .  A
O1342     Cd1347   2.452       .  S
C1343      O1352   1.262       .  A
C1343      O1348   1.269       .  A
C1343      C1789   1.432       .  S
O1344      C1350   1.267       .  A
O1344     Cd1347   2.450       .  S
C1345      O1353   1.265       .  A
C1345      C1787   1.436       .  S
C1346      O1351   1.269       .  A
C1346      O1349   1.262       .  A
C1346      C1797   1.428       .  S
Cd1347     O1354   2.431       .  S
Cd1347     O1353   2.463       .  S
Cd1347     O1352   2.424       .  S
Cd1347     O1348   2.476       .  S
Cd1347     O1351   2.485       .  S
Cd1347     O1349   2.395       .  S
C1350      O1354   1.264       .  A
C1350      C1794   1.429       .  S
O1355      C1358   1.266       .  A
O1355     Cd1360   2.449       .  S
C1356      O1365   1.263       .  A
C1356      O1361   1.268       .  A
C1356      C1800   1.433       .  S
O1357      C1363   1.267       .  A
O1357     Cd1360   2.464       .  S
C1358      O1366   1.265       .  A
C1358      C1784   1.437       .  S
C1359      O1364   1.270       .  A
C1359      O1362   1.261       .  A
C1359      C1790   1.431       .  S
Cd1360     O1367   2.445       .  S
Cd1360     O1366   2.470       .  S
Cd1360     O1365   2.433       .  S
Cd1360     O1361   2.472       .  S
Cd1360     O1364   2.498       .  S
Cd1360     O1362   2.396       .  S
C1363      O1367   1.264       .  A
C1363      C1786   1.434       .  S
O1368      C1983   1.267       .  A
O1368     Cd1373   2.450       .  S
C1369      O1378   1.263       .  A
C1369      O1374   1.269       .  A
C1369      C1804   1.433       .  S
O1370      C1376   1.270       .  A
O1370     Cd1985   2.497       .  S
C1371      O1980   1.267       .  A
C1371      O1379   1.265       .  A
C1371      C1807   1.437       .  S
C1372      O1377   1.267       .  A
C1372      O1375   1.264       .  A
C1372      C1785   1.434       .  S
Cd1373     O1982   2.497   1_545  S
Cd1373     O1992   2.394   1_545  S
Cd1373     O1991   2.467   1_545  S
Cd1373     O1378   2.431       .  S
Cd1373     O1374   2.472       .  S
Cd1373     O1377   2.462       .  S
Cd1373     O1375   2.444       .  S
C1376      O1380   1.261       .  A
C1376      C1792   1.431       .  S
O1379     Cd1985   2.467       .  S
O1380     Cd1985   2.394       .  S
O1381      C1384   1.268       .  A
O1381     Cd1386   2.477       .  S
C1382      O1391   1.265       .  A
C1382      O1387   1.265       .  A
C1382      C1823   1.438       .  S
O1383      C1389   1.270       .  A
O1383     Cd1386   2.503       .  S
C1384      O1392   1.263       .  A
C1384      C1777   1.432       .  S
C1385      O1390   1.267   1_655  A
C1385      O1388   1.264       .  A
C1385      C1782   1.439       .  S
Cd1386     O1393   2.406       .  S
Cd1386     O1392   2.427       .  S
Cd1386     O1391   2.482       .  S
Cd1386     O1387   2.452       .  S
C1389      O1393   1.261       .  A
C1389      C1779   1.433       .  S
O1394      C1397   1.269       .  A
O1394     Cd1399   2.479       .  S
C1395      O1404   1.266       .  A
C1395      O1400   1.266       .  A
C1395      C1771   1.442       .  S
O1396      C1402   1.267       .  A
O1396     Cd1399   2.476       .  S
C1397      O1405   1.262       .  A
C1397      C1774   1.433       .  S
C1398      O1403   1.270       .  A
C1398      O1401   1.261       .  A
C1398      C1776   1.433       .  S
Cd1399     O1406   2.460       .  S
Cd1399     O1405   2.427       .  S
Cd1399     O1404   2.487       .  S
Cd1399     O1400   2.462       .  S
Cd1399     O1403   2.502       .  S
Cd1399     O1401   2.402       .  S
C1402      O1406   1.264       .  A
C1402      C1781   1.440       .  S
O1407      C1410   1.268       .  A
O1407     Cd1412   2.478       .  S
C1408      O1417   1.264       .  A
C1408      O1413   1.266       .  A
C1408      C1809   1.437       .  S
O1409      C1415   1.269       .  A
O1409     Cd1412   2.498       .  S
C1410      O1418   1.263       .  A
C1410      C1780   1.434       .  S
C1411      O1416   1.266       .  A
C1411      O1414   1.264       .  A
C1411      C1770   1.436       .  S
Cd1412     O1419   2.404       .  S
Cd1412     O1418   2.437       .  S
Cd1412     O1417   2.472       .  S
Cd1412     O1413   2.454       .  S
Cd1412     O1416   2.467       .  S
Cd1412     O1414   2.453       .  S
C1415      O1419   1.261       .  A
C1415      C1767   1.432       .  S
O1420      C1423   1.266       .  A
O1420     Cd1425   2.455       .  S
C1421      O1430   1.263       .  A
C1421      O1426   1.268       .  A
C1421      C1775   1.434       .  S
O1422      C1428   1.269       .  A
O1422     Cd1425   2.499       .  S
C1423      O1431   1.265       .  A
C1423      C1764   1.438       .  S
C1424      O1429   1.266       .  A
C1424      O1427   1.264       .  A
C1424      C1769   1.436       .  S
Cd1425     O1432   2.401       .  S
Cd1425     O1431   2.474       .  S
Cd1425     O1430   2.437       .  S
Cd1425     O1426   2.476       .  S
Cd1425     O1429   2.466       .  S
Cd1425     O1427   2.454       .  S
C1428      O1432   1.261       .  A
C1428      C1765   1.432       .  S
O1433      C1436   1.268       .  A
O1433     Cd1438   2.480       .  S
C1434      O1443   1.265       .  A
C1434      O1439   1.266       .  A
C1434      C1818   1.438       .  S
O1435      C1441   1.269       .  A
O1435     Cd1438   2.494       .  S
C1436      O1444   1.262       .  A
C1436      C1768   1.432       .  S
C1437      O1442   1.266       .  A
C1437      O1440   1.265       .  A
C1437      C1761   1.438       .  S
Cd1438     O1445   2.410       .  S
Cd1438     O1444   2.426       .  S
Cd1438     O1443   2.471       .  S
Cd1438     O1439   2.460       .  S
Cd1438     O1442   2.468       .  S
Cd1438     O1440   2.459       .  S
C1441      O1445   1.261       .  A
C1441      C1778   1.432       .  S
O1446      C1449   1.267       .  A
O1446     Cd1451   2.464       .  S
C1447      O1456   1.263       .  A
C1447      O1452   1.269       .  A
C1447      C1766   1.432       .  S
O1448      C1454   1.269       .  A
O1448     Cd1451   2.494       .  S
C1449      O1457   1.265       .  A
C1449      C1760   1.440       .  S
C1450      O1455   1.266       .  A
C1450      O1453   1.265       .  A
C1450      C2374   1.438   1_545  S
Cd1451     O1458   2.407       .  S
Cd1451     O1457   2.472       .  S
Cd1451     O1456   2.424       .  S
Cd1451     O1452   2.481       .  S
Cd1451     O1455   2.466       .  S
Cd1451     O1453   2.461       .  S
C1454      O1458   1.261       .  A
C1454      C1773   1.432       .  S
O1459      C1462   1.270       .  A
O1459     Cd1464   2.476       .  S
C1460      O1469   1.265       .  A
C1460      O1465   1.268       .  A
C1460      C1751   1.437       .  S
O1461     Cd1464   2.456       .  S
C1462      O1470   1.263       .  A
C1462      C1754   1.432       .  S
C1463      O1468   1.271       .  A
C1463      O1466   1.262       .  A
C1463      C1756   1.429       .  S
Cd1464     O1470   2.421       .  S
Cd1464     O1469   2.464       .  S
Cd1464     O1465   2.451       .  S
Cd1464     O1468   2.489       .  S
Cd1464     O1466   2.390       .  S
C1467      O1471   1.265       .  A
C1467      C1758   1.432   1_556  S
O1472      C1475   1.269       .  A
O1472     Cd1477   2.481       .  S
C1473      O1482   1.265       .  A
C1473      O1478   1.267       .  A
C1473      C1783   1.437       .  S
O1474      C1480   1.270       .  A
O1474     Cd1477   2.487       .  S
C1475      O1483   1.262       .  A
C1475      C1747   1.434       .  S
C1476      O1481   1.267       .  A
C1476      O1479   1.264       .  A
C1476      C1757   1.433       .  S
Cd1477     O1484   2.399       .  S
Cd1477     O1483   2.425       .  S
Cd1477     O1482   2.468       .  S
Cd1477     O1478   2.455       .  S
Cd1477     O1481   2.456       .  S
Cd1477     O1479   2.442       .  S
C1480      O1484   1.262       .  A
C1480      C1749   1.429       .  S
O1485      C1488   1.266       .  A
O1485     Cd1490   2.446       .  S
C1486      O1495   1.263       .  A
C1486      O1491   1.268       .  A
C1486      C1755   1.430       .  S
O1487      C1493   1.270       .  A
O1487     Cd1490   2.497       .  S
C1488      O1496   1.266       .  A
C1488      C1741   1.438       .  S
C1489      O1494   1.267       .  A
C1489      O1492   1.264       .  A
C1489      C1746   1.432       .  S
Cd1490     O1497   2.400       .  S
Cd1490     O1496   2.479       .  S
Cd1490     O1495   2.424       .  S
Cd1490     O1491   2.471       .  S
Cd1490     O1494   2.458       .  S
Cd1490     O1492   2.438       .  S
C1493      O1497   1.261       .  A
C1493      C1743   1.431       .  S
O1498      C1501   1.265       .  A
O1498     Cd1503   2.437       .  S
C1499      O1508   1.263       .  A
C1499      O1504   1.268       .  A
C1499      C1750   1.430       .  S
O1500      C1506   1.266       .  A
O1500     Cd1503   2.463       .  S
C1501      O1509   1.265       .  A
C1501      C1795   1.434       .  S
C1502      O1507   1.269       .  A
C1502      O1505   1.261       .  A
C1502      C1739   1.432       .  S
Cd1503     O1510   2.438       .  S
Cd1503     O1509   2.478       .  S
Cd1503     O1508   2.426       .  S
Cd1503     O1504   2.468       .  S
Cd1503     O1507   2.499       .  S
Cd1503     O1505   2.403       .  S
C1506      O1510   1.263       .  A
C1506      C2357   1.433       .  S
O1511      C1514   1.269       .  A
O1511     Cd1516   2.471       .  S
C1512      O1521   1.265       .  A
C1512      O1517   1.267       .  A
C1512      C1735   1.439       .  S
O1513      C1519   1.267       .  A
O1513     Cd1516   2.470       .  S
C1514      O1522   1.263       .  A
C1514      C1744   1.432       .  S
C1515      O1520   1.270       .  A
C1515      O1518   1.261       .  A
C1515      C1753   1.431       .  S
Cd1516     O1523   2.450       .  S
Cd1516     O1522   2.431       .  S
Cd1516     O1521   2.472       .  S
Cd1516     O1517   2.454       .  S
Cd1516     O1520   2.498       .  S
Cd1516     O1518   2.394       .  S
C1519      O1523   1.264       .  A
C1519      C1738   1.437   1_556  S
O1524      C1527   1.268       .  A
O1524     Cd1529   2.469       .  S
C1525      O1534   1.265       .  A
C1525      O1530   1.267       .  A
C1525      C1788   1.436       .  S
O1526      C1532   1.271       .  A
O1526     Cd1529   2.502       .  S
C1527      O1535   1.264       .  A
C1527      C1740   1.433       .  S
C1528      O1533   1.268       .  A
C1528      O1531   1.264       .  A
C1528      C1737   1.437       .  S
Cd1529     O1536   2.399       .  S
Cd1529     O1535   2.433       .  S
Cd1529     O1534   2.465       .  S
Cd1529     O1530   2.447       .  S
Cd1529     O1533   2.472       .  S
Cd1529     O1531   2.446       .  S
C1532      O1536   1.261       .  A
C1532      C1748   1.433       .  S
O1537      C1540   1.265       .  A
O1537     Cd1542   2.456       .  S
C1538      O1547   1.263       .  A
C1538      O1543   1.268       .  A
C1538      C1729   1.433       .  S
O1539      C1545   1.265       .  A
O1539     Cd1542   2.468       .  S
C1540      O2160   1.265       .  A
C1540      C1728   1.438       .  S
C1541      O1546   1.268       .  A
C1541      O1544   1.261       .  A
Cd1542     O1549   2.463       .  S
Cd1542     O2160   2.476       .  S
Cd1542     O1547   2.430       .  S
Cd1542     O1543   2.479       .  S
Cd1542     O2158   2.497   1_545  S
Cd1542     O2156   2.414   1_545  S
O1544     Cd2154   2.414       .  S
C1545      O1549   1.264       .  A
C1545      C1733   1.437       .  S
O1546     Cd2154   2.497       .  S
O1548      C2152   1.265       .  A
O1548     Cd2154   2.476       .  S
O1550      C1553   1.266       .  A
O1550     Cd1555   2.460       .  S
C1551      O1560   1.262       .  A
C1551      O1556   1.268       .  A
C1551      C1723   1.432       .  S
O1552      C1558   1.269       .  A
O1552     Cd1555   2.492       .  S
C1553      O1561   1.264       .  A
C1553      C1763   1.438       .  S
C1554      O1559   1.266       .  A
C1554      O1557   1.265       .  A
C1554      C1734   1.437       .  S
Cd1555     O1562   2.414       .  S
Cd1555     O1561   2.469       .  S
Cd1555     O1560   2.425       .  S
Cd1555     O1556   2.480       .  S
Cd1555     O1559   2.464       .  S
Cd1555     O1557   2.460       .  S
C1558      O1562   1.262       .  A
C1558      C1725   1.433       .  S
O1563      C1566   1.266       .  A
O1563     Cd1568   2.463       .  S
C1564      O1573   1.263       .  A
C1564      O1569   1.268       .  A
C1564      C1726   1.433       .  S
O1565      C1571   1.270       .  A
O1565     Cd1568   2.509       .  S
C1566      O1574   1.266       .  A
C1566      C1772   1.442       .  S
C1567      O1572   1.267       .  A
C1567      O1570   1.265       .  A
C1567      C1721   1.445       .  S
Cd1568     O1575   2.407       .  S
Cd1568     O1574   2.488       .  S
Cd1568     O1573   2.427       .  S
Cd1568     O1569   2.478       .  S
Cd1568     O1572   2.489       .  S
Cd1568     O1570   2.475       .  S
C1571      O1575   1.261       .  A
C1571      C1720   1.435       .  S
O1576      C1579   1.266       .  A
O1576     Cd1581   2.469       .  S
C1577      O1586   1.263       .  A
C1577      O1582   1.269       .  A
C1577      C1731   1.433       .  S
O1578      C1584   1.267       .  A
O1578     Cd1581   2.489       .  S
C1579      O1587   1.265       .  A
C1579      C1715   1.444       .  S
C1580      O1585   1.270       .  A
C1580      O1583   1.261       .  A
C1580      C1718   1.435       .  S
Cd1581     O1588   2.475       .  S
Cd1581     O1587   2.488       .  S
Cd1581     O1586   2.425       .  S
Cd1581     O1582   2.482       .  S
Cd1581     O1585   2.507       .  S
Cd1581     O1583   2.410       .  S
C1584      O1588   1.265       .  A
C1584      C1722   1.445       .  S
O1589      C1592   1.267       .  A
O1589     Cd1594   2.464       .  S
C1590      O1599   1.263       .  A
C1590      O1595   1.269       .  A
C1590      C1719   1.436       .  S
O1591      C1597   1.269       .  A
O1591     Cd1594   2.497       .  S
C1592      O1600   1.264       .  A
C1592      C1759   1.440       .  S
C1593      O1598   1.266       .  A
C1593      O1596   1.265       .  A
C1593      C1713   1.438       .  S
Cd1594     O1601   2.401       .  S
Cd1594     O1600   2.475       .  S
Cd1594     O1599   2.437       .  S
Cd1594     O1595   2.485       .  S
Cd1594     O1598   2.468       .  S
Cd1594     O1596   2.461       .  S
C1597      O1601   1.261       .  A
C1597      C1724   1.431       .  S
O1602      C1605   1.266       .  A
O1602     Cd1607   2.460       .  S
C1603      O1612   1.263       .  A
C1603      O1608   1.268       .  A
C1603      C1717   1.436   1_545  S
O1604      C1610   1.266       .  A
O1604     Cd1607   2.472       .  S
C1605      O1613   1.265       .  A
C1605      C1712   1.439       .  S
C1606      O1611   1.269       .  A
C1606      C1730   1.432       .  S
Cd1607     O1614   2.458       .  S
Cd1607     O1613   2.480       .  S
Cd1607     O1612   2.441       .  S
Cd1607     O1608   2.483       .  S
Cd1607     O1609   2.404       .  S
C1610      O1614   1.264       .  A
C1610      C1714   1.438       .  S
O1615      C1618   1.267       .  A
O1615     Cd1620   2.455       .  S
C1616      O1625   1.263       .  A
C1616      O1621   1.269       .  A
C1616      C1705   1.436       .  S
O1617      C1623   1.270       .  A
O1617     Cd1620   2.500       .  S
C1618      C1752   1.437       .  S
C1619      O1624   1.267       .  A
C1619      O1622   1.265       .  A
C1619      C1709   1.436       .  S
Cd1620     O1627   2.404       .  S
Cd1620     O1625   2.436       .  S
Cd1620     O1621   2.482       .  S
Cd1620     O1624   2.466       .  S
Cd1620     O1622   2.453       .  S
C1623      O1627   1.262       .  A
C1623      C1708   1.434       .  S
O1628      C2243   1.266       .  A
O1628     Cd1633   2.456       .  S
C1629      O1638   1.263       .  A
C1629      O1634   1.268       .  A
O1630      C1636   1.266       .  A
O1630     Cd1633   2.469       .  S
C1631      O2240   1.266       .  A
C1631      O1639   1.265       .  A
C1631      C1727   1.438       .  S
C1632      O1637   1.269       .  A
C1632      O1635   1.261       .  A
C1632      C1703   1.432       .  S
Cd1633     O1640   2.453       .  S
Cd1633     O2251   2.480       .  S
Cd1633     O1638   2.440       .  S
Cd1633     O1634   2.481       .  S
Cd1633     O2249   2.499       .  S
Cd1633     O2247   2.406       .  S
O1635     Cd2245   2.406   1_545  S
C1636      O1640   1.264       .  A
C1636      C1710   1.436       .  S
O1637     Cd2245   2.499   1_545  S
O1639     Cd2245   2.480       .  S
O1641      C1644   1.269       .  A
O1641     Cd1646   2.481       .  S
C1642      O1651   1.265       .  A
C1642      O1647   1.266       .  A
C1642      C1716   1.444       .  S
O1643      C1649   1.270       .  A
O1643     Cd1646   2.507       .  S
C1644      O1652   1.263       .  A
C1644      C1697   1.433       .  S
C1645      O1650   1.267       .  A
C1645      O1648   1.265       .  A
C1645      C1700   1.444       .  S
Cd1646     O1653   2.404       .  S
Cd1646     O1652   2.428       .  S
Cd1646     O1651   2.487       .  S
Cd1646     O1647   2.468       .  S
Cd1646     O1650   2.488       .  S
Cd1646     O1648   2.470       .  S
C1649      O1653   1.261       .  A
C1649      C1702   1.434       .  S
O1654      C1657   1.268       .  A
O1654     Cd1659   2.475       .  S
C1655      O1664   1.265       .  A
C1655      O1660   1.266       .  A
C1655      C1742   1.438       .  S
O1656      C1662   1.267       .  A
O1656     Cd1659   2.489       .  S
C1657      O1665   1.263       .  A
C1657      C1695   1.433       .  S
C1658      O1663   1.270       .  A
C1658      O1661   1.260       .  A
C1658      C1706   1.435       .  S
Cd1659     O1666   2.473       .  S
Cd1659     O1665   2.432       .  S
Cd1659     O1664   2.477       .  S
Cd1659     O1660   2.456       .  S
Cd1659     O1663   2.511       .  S
Cd1659     O1661   2.408       .  S
C1662      O1666   1.264       .  A
C1662      C1699   1.444       .  S
O1667      C1670   1.268       .  A
C1668      O1677   1.264       .  A
C1668      O1673   1.265   1_655  A
C1668      C1711   1.439       .  S
O1669      C1675   1.268       .  A
O1669     Cd1672   2.495       .  S
C1670      C1704   1.433       .  S
C1671      O1674   1.265       .  A
C1671      C1694   1.438       .  S
Cd1672     O1679   2.418       .  S
Cd1672     O1678   2.428   1_655  S
Cd1672     O1677   2.476       .  S
Cd1672     O1673   2.461   1_655  S
Cd1672     O1676   2.470       .  S
C1675      O1679   1.262       .  A
C1675      C1698   1.433       .  S
O1680      C1683   1.269       .  A
O1680     Cd1685   2.492       .  S
C1681      O1690   1.264       .  A
C1681      O1686   1.267       .  A
C1681      C1736   1.439       .  S
O1682      C1688   1.264       .  A
O1682     Cd1685   2.458       .  S
C1683      O1691   1.262       .  A
C1683      C1707   1.434       .  S
C1684      O1689   1.268       .  A
C1684      O1687   1.262       .  A
C1684      C1696   1.433       .  S
Cd1685     O1692   2.475       .  S
Cd1685     O1691   2.426       .  S
Cd1685     O1690   2.469       .  S
Cd1685     O1686   2.470       .  S
Cd1685     O1689   2.487       .  S
Cd1685     O1687   2.422       .  S
C1688      O1692   1.265       .  A
C1688      C1693   1.438       .  S
C1693      C1694   1.207       .  T
C1695      C1696   1.205       .  T
C1697      C2310   1.205       .  T
C1698      C2309   1.205       .  T
C1699      C1700   1.211       .  T
C1701      C1702   1.206       .  T
C1703      C1704   1.204       .  T
C1705      C1706   1.206       .  T
C1707      C1708   1.205       .  T
C1709      C1710   1.207       .  T
C1711      C1712   1.208       .  T
C1713      C1714   1.207       .  T
C1715      C1716   1.211       .  T
C1717      C2330   1.206       .  T
C1718      C2329   1.206       .  T
C1719      C1720   1.206       .  T
C1721      C1722   1.212       .  T
C1723      C1724   1.204       .  T
C1725      C1726   1.205       .  T
C1727      C1728   1.208   1_565  T
C1729      C1730   1.204       .  T
C1731      C1732   1.205   1_655  T
C1733      C1734   1.207       .  T
C1735      C1736   1.208       .  T
C1737      C1738   1.207       .  T
C1739      C1740   1.204       .  T
C1741      C1742   1.208       .  T
C1743      C1744   1.204       .  T
C1745      C2118   1.433       .  S
C1745      C1746   1.205   1_554  T
C1747      C1748   1.205       .  T
C1749      C1750   1.203       .  T
C1751      C1752   1.207       .  T
C1753      C1754   1.204       .  T
C1755      C1756   1.203       .  T
C1757      C1758   1.205       .  T
C1759      C1760   1.209       .  T
C1761      C1762   1.207       .  T
C1762      C2062   1.438       .  S
C1763      C1764   1.208       .  T
C1765      C1766   1.204       .  T
C1767      C1768   1.204       .  T
C1769      C1770   1.206       .  T
C1771      C1772   1.210       .  T
C1773      C1774   1.204       .  T
C1775      C1776   1.205       .  T
C1777      C1778   1.204       .  T
C1779      C1780   1.205       .  T
C1781      C1782   1.209       .  T
C1783      C1784   1.207       .  T
C1785      C1786   1.206       .  T
C1787      C1788   1.206       .  T
C1789      C1790   1.204       .  T
C1791      C1792   1.204       .  T
C1793      C1794   1.202       .  T
C1795      C1796   1.205       .  T
C1797      C1798   1.202       .  T
C1799      C1800   1.204       .  T
C1801      C2414   1.202       .  T
C1802      C2413   1.202       .  T
C1803      C1804   1.204   1_455  T
C1805      C1806   1.204       .  T
C1807      C1808   1.207       .  T
C1809      C1810   1.207       .  T
C1811      C1812   1.205       .  T
C1813      C1814   1.206       .  T
C1815      C1816   1.204       .  T
C1817      C1818   1.208       .  T
C1819      C1820   1.204       .  T
C1821      C1822   1.206       .  T
C1823      C1824   1.208       .  T
C1825      C1826   1.203       .  T
C1827      C1828   1.204       .  T
C1829      C1830   1.205       .  T
C1831      C1832   1.203       .  T
C1833      C2446   1.205       .  T
C1834      C2445   1.205       .  T
C1835      C1836   1.205       .  T
O1837      C1840   1.265       .  A
O1837     Cd1842   2.439       .  S
C1838      O1847   1.263       .  A
C1838      O1843   1.268       .  A
O1839      C1845   1.270       .  A
O1839     Cd1842   2.498       .  S
C1840      O1848   1.265       .  A
C1840      C2441   1.434       .  S
C1841      O1846   1.267       .  A
C1841      O1844   1.263       .  A
C1841      C2447   1.434       .  S
Cd1842     O1849   2.406       .  S
Cd1842     O1848   2.476       .  S
Cd1842     O1847   2.425       .  S
Cd1842     O1843   2.470       .  S
Cd1842     O1846   2.465       .  S
Cd1842     O1844   2.439       .  S
C1845      O1849   1.261       .  A
C1845      C2445   1.433       .  S
O1850      C1853   1.268       .  A
O1850     Cd1855   2.473       .  S
C1851      O1860   1.266       .  A
C1851      O1856   1.265       .  A
C1851      C2436   1.438       .  S
O1852      C1858   1.270       .  A
O1852     Cd1855   2.499       .  S
C1853      O1861   1.263       .  A
C1853      C2438   1.431       .  S
C1854      O1859   1.267       .  A
C1854      O1857   1.264       .  A
C1854      C2448   1.434       .  S
Cd1855     O1862   2.401       .  S
Cd1855     O1861   2.427       .  S
Cd1855     O1860   2.481       .  S
Cd1855     O1856   2.449       .  S
Cd1855     O1859   2.464       .  S
Cd1855     O1857   2.443       .  S
C1858      O1862   1.261       .  A
C1858      C2439   1.432       .  S
O1863      C1866   1.266       .  A
O1863     Cd1868   2.455       .  S
C1864      O1873   1.263       .  A
C1864      O1869   1.268       .  A
C1864      C2440   1.433       .  S
O1865      C1871   1.266       .  A
O1865     Cd1868   2.466       .  S
C1866      O1874   1.265       .  A
C1866      C2429   1.438       .  S
C1867      O1872   1.269       .  A
C1867      O1870   1.261       .  A
C1867      C2431   1.431       .  S
Cd1868     O1875   2.448       .  S
Cd1868     O1874   2.474       .  S
Cd1868     O1873   2.436       .  S
Cd1868     O1869   2.473       .  S
Cd1868     O1872   2.498       .  S
Cd1868     O1870   2.398       .  S
C1871      O1875   1.264       .  A
C1871      C2434   1.435       .  S
O1876      C1879   1.266   1_455  A
O1876     Cd1881   2.447       .  S
C1877      O1886   1.263       .  A
C1877      O1882   1.268       .  A
C1877      C2446   1.433   1_565  S
O1878      C1884   1.270       .  A
O1878     Cd1881   2.499   1_655  S
C1879      O1887   1.264       .  A
C1879      C2425   1.435       .  S
C1880      O1883   1.264       .  A
C1880      C2433   1.435       .  S
Cd1881     O1888   2.400   1_455  S
Cd1881     O1887   2.465   1_455  S
Cd1881     O1885   2.465       .  S
C1884      O1888   1.261       .  A
C1884      C2427   1.432       .  S
O1889      C1892   1.266       .  A
O1889     Cd1894   2.454       .  S
C1890      O1899   1.263       .  A
C1890      O1895   1.269       .  A
C1890      C2432   1.432       .  S
O1891      C1897   1.266       .  A
O1891     Cd1894   2.459       .  S
C1892      O1900   1.265       .  A
C1892      C2422   1.437       .  S
C1893      O1898   1.269       .  A
C1893      O1896   1.261       .  A
C1893      C2437   1.431       .  S
Cd1894     O1901   2.445       .  S
Cd1894     O1900   2.469       .  S
Cd1894     O1899   2.426       .  S
Cd1894     O1895   2.476       .  S
Cd1894     O1898   2.492       .  S
Cd1894     O1896   2.402       .  S
C1897      O1901   1.264       .  A
C1897      C2423   1.433       .  S
O1902      C1905   1.269       .  A
O1902     Cd1907   2.481       .  S
C1903      O1912   1.264       .  A
C1903      O1908   1.267       .  A
C1903      C2420   1.437       .  S
O1904      C1910   1.267       .  A
O1904     Cd1907   2.456       .  S
C1905      O1913   1.262       .  A
C1905      C2428   1.432       .  S
C1906      O1911   1.270       .  A
C1906      O1909   1.262       .  A
C1906      C2443   1.430       .  S
Cd1907     O1914   2.445       .  S
Cd1907     O1913   2.421       .  S
Cd1907     O1912   2.462       .  S
Cd1907     O1908   2.457       .  S
C1910      O1914   1.265       .  A
C1910      C2424   1.433       .  S
O1915      C1918   1.265       .  A
O1915     Cd1920   2.434       .  S
C1916      O1925   1.263       .  A
C1916      O1921   1.268       .  A
C1916      C2413   1.430       .  S
O1917      C1923   1.270       .  A
O1917     Cd1920   2.498       .  S
C1918      O1926   1.266       .  A
C1918      C2442   1.434       .  S
C1919      O1924   1.267       .  A
C1919      O1922   1.263       .  A
C1919      C2417   1.431       .  S
Cd1920     O1927   2.399       .  S
Cd1920     O1926   2.476       .  S
Cd1920     O1925   2.425       .  S
Cd1920     O1921   2.465       .  S
Cd1920     O1924   2.460       .  S
Cd1920     O1922   2.431       .  S
C1923      O1927   1.261       .  A
O1928      C1931   1.268       .  A
O1928     Cd1933   2.463       .  S
C1929      O1938   1.266       .  A
C1929      O1934   1.265       .  A
C1929      C2408   1.434       .  S
O1930      C1936   1.270       .  A
O1930     Cd1933   2.499       .  S
C1931      O1939   1.263       .  A
C1931      C2410   1.429       .  S
C1932      O1937   1.267       .  A
C1932      O1935   1.263       .  A
C1932      C2418   1.431       .  S
Cd1933     O1940   2.401       .  S
Cd1933     O1939   2.425       .  S
Cd1933     O1938   2.476       .  S
Cd1933     O1934   2.435       .  S
Cd1933     O1937   2.459       .  S
Cd1933     O1935   2.429       .  S
C1936      O1940   1.261       .  A
C1936      C2411   1.432       .  S
O1941      C1944   1.269       .  A
O1941     Cd1946   2.477       .  S
C1942      O1951   1.265       .  A
C1942      O1947   1.267       .  A
C1942      C2426   1.435       .  S
O1943      C1949   1.267       .  A
O1943     Cd1946   2.446       .  S
C1944      O1952   1.262       .  A
C1944      C2403   1.432       .  S
C1945      O1950   1.269       .  A
C1945      O1948   1.262       .  A
Cd1946     O1953   2.432       .  S
Cd1946     O1952   2.422       .  S
Cd1946     O1951   2.460       .  S
Cd1946     O1947   2.451       .  S
Cd1946     O1950   2.483       .  S
Cd1946     O1948   2.399       .  S
C1949      O1953   1.264       .  A
C1949      C2405   1.429       .  S
O1954      C1957   1.267       .  A
O1954     Cd1959   2.452       .  S
C1955      O1964   1.262       .  A
C1955      O1960   1.269       .  A
C1955      C2401   1.432       .  S
O1956      C1962   1.267       .  A
O1956     Cd1959   2.450       .  S
C1957      O1965   1.265       .  A
C1957      C2399   1.436       .  S
C1958      O1963   1.269       .  A
C1958      O1961   1.262       .  A
C1958      C2409   1.428       .  S
Cd1959     O1966   2.431       .  S
Cd1959     O1965   2.463       .  S
Cd1959     O1964   2.424       .  S
Cd1959     O1960   2.476       .  S
Cd1959     O1963   2.485       .  S
Cd1959     O1961   2.395       .  S
C1962      O1966   1.264       .  A
C1962      C2406   1.429       .  S
O1967      C1970   1.266       .  A
O1967     Cd1972   2.449       .  S
C1968      O1977   1.263       .  A
C1968      O1973   1.268       .  A
C1968      C2412   1.433       .  S
O1969      C1975   1.267       .  A
O1969     Cd1972   2.464       .  S
C1970      O1978   1.265       .  A
C1970      C2396   1.437       .  S
C1971      O1976   1.270       .  A
C1971      O1974   1.261       .  A
C1971      C2402   1.431       .  S
Cd1972     O1979   2.445       .  S
Cd1972     O1978   2.470       .  S
Cd1972     O1977   2.433       .  S
Cd1972     O1973   2.472       .  S
Cd1972     O1976   2.498       .  S
Cd1972     O1974   2.396       .  S
C1975      O1979   1.264       .  A
C1975      C2398   1.434       .  S
O1980     Cd1985   2.450       .  S
C1981      O1990   1.263       .  A
C1981      O1986   1.269       .  A
C1981      C2416   1.433       .  S
O1982      C1988   1.270       .  A
C1983      O1991   1.265   1_545  A
C1983      C2419   1.437   1_545  S
C1984      O1989   1.267       .  A
C1984      O1987   1.264       .  A
C1984      C2397   1.434       .  S
Cd1985     O1990   2.431       .  S
Cd1985     O1986   2.472       .  S
Cd1985     O1989   2.462       .  S
Cd1985     O1987   2.444       .  S
C1988      O1992   1.261       .  A
C1988      C2404   1.431       .  S
O1993      C1996   1.268       .  A
O1993     Cd1998   2.477       .  S
C1994      O2003   1.265       .  A
C1994      O1999   1.265       .  A
C1994      C2435   1.438       .  S
O1995      C2001   1.270       .  A
O1995     Cd1998   2.503       .  S
C1996      O2004   1.263       .  A
C1996      C2389   1.432       .  S
C1997      O2002   1.267   1_655  A
C1997      O2000   1.264       .  A
C1997      C2394   1.439       .  S
Cd1998     O2005   2.406       .  S
Cd1998     O2004   2.427       .  S
Cd1998     O2003   2.482       .  S
Cd1998     O1999   2.452       .  S
C2001      O2005   1.261       .  A
C2001      C2391   1.433       .  S
O2006      C2009   1.269       .  A
O2006     Cd2011   2.479       .  S
C2007      O2016   1.266       .  A
C2007      O2012   1.266       .  A
C2007      C2383   1.442       .  S
O2008      C2014   1.267       .  A
O2008     Cd2011   2.476       .  S
C2009      O2017   1.262       .  A
C2009      C2386   1.433       .  S
C2010      O2015   1.270       .  A
C2010      O2013   1.261       .  A
C2010      C2388   1.433       .  S
Cd2011     O2018   2.460       .  S
Cd2011     O2017   2.427       .  S
Cd2011     O2016   2.487       .  S
Cd2011     O2012   2.462       .  S
Cd2011     O2015   2.502       .  S
Cd2011     O2013   2.402       .  S
C2014      O2018   1.264       .  A
C2014      C2393   1.440       .  S
O2019      C2022   1.268       .  A
O2019     Cd2024   2.478       .  S
C2020      O2029   1.264       .  A
C2020      O2025   1.266       .  A
C2020      C2421   1.437       .  S
O2021      C2027   1.269       .  A
O2021     Cd2024   2.498       .  S
C2022      O2030   1.263       .  A
C2022      C2392   1.434       .  S
C2023      O2028   1.266       .  A
C2023      O2026   1.264       .  A
C2023      C2382   1.436       .  S
Cd2024     O2031   2.404       .  S
Cd2024     O2030   2.437       .  S
Cd2024     O2029   2.472       .  S
Cd2024     O2025   2.454       .  S
Cd2024     O2028   2.467       .  S
Cd2024     O2026   2.453       .  S
C2027      O2031   1.261       .  A
C2027      C2379   1.432       .  S
O2032      C2035   1.266       .  A
O2032     Cd2037   2.455       .  S
C2033      O2042   1.263       .  A
C2033      O2038   1.268       .  A
C2033      C2387   1.434       .  S
O2034      C2040   1.269       .  A
O2034     Cd2037   2.499       .  S
C2035      O2043   1.265       .  A
C2035      C2376   1.438       .  S
C2036      O2041   1.266       .  A
C2036      O2039   1.264       .  A
C2036      C2381   1.436       .  S
Cd2037     O2044   2.401       .  S
Cd2037     O2043   2.474       .  S
Cd2037     O2042   2.437       .  S
Cd2037     O2038   2.476       .  S
Cd2037     O2041   2.466       .  S
Cd2037     O2039   2.454       .  S
C2040      O2044   1.261       .  A
C2040      C2377   1.432       .  S
O2045      C2048   1.268       .  A
O2045     Cd2050   2.480       .  S
C2046      O2055   1.265       .  A
C2046      O2051   1.266       .  A
C2046      C2430   1.438       .  S
O2047      C2053   1.269       .  A
O2047     Cd2050   2.494       .  S
C2048      O2056   1.262       .  A
C2048      C2380   1.432       .  S
C2049      O2054   1.266       .  A
C2049      O2052   1.265       .  A
C2049      C2373   1.438       .  S
Cd2050     O2057   2.410       .  S
Cd2050     O2056   2.426       .  S
Cd2050     O2055   2.471       .  S
Cd2050     O2051   2.460       .  S
Cd2050     O2054   2.468       .  S
Cd2050     O2052   2.459       .  S
C2053      O2057   1.261       .  A
C2053      C2390   1.432       .  S
O2058      C2061   1.267       .  A
O2058     Cd2063   2.464       .  S
C2059      O2068   1.263       .  A
C2059      O2064   1.269       .  A
C2059      C2378   1.432       .  S
O2060      C2066   1.269       .  A
O2060     Cd2063   2.494       .  S
C2061      O2069   1.265       .  A
C2061      C2372   1.440       .  S
C2062      O2067   1.266       .  A
C2062      O2065   1.265       .  A
Cd2063     O2070   2.407       .  S
Cd2063     O2069   2.472       .  S
Cd2063     O2068   2.424       .  S
Cd2063     O2064   2.481       .  S
Cd2063     O2067   2.466       .  S
Cd2063     O2065   2.461       .  S
C2066      O2070   1.261       .  A
C2066      C2385   1.432       .  S
O2071      C2074   1.270       .  A
O2071     Cd2076   2.476       .  S
C2072      O2081   1.265       .  A
C2072      O2077   1.268       .  A
C2072      C2363   1.437       .  S
O2073     Cd2076   2.456       .  S
C2074      O2082   1.263       .  A
C2074      C2366   1.432       .  S
C2075      O2080   1.271       .  A
C2075      O2078   1.262       .  A
C2075      C2368   1.429       .  S
Cd2076     O2082   2.421       .  S
Cd2076     O2081   2.464       .  S
Cd2076     O2077   2.451       .  S
Cd2076     O2080   2.489       .  S
Cd2076     O2078   2.390       .  S
C2079      O2083   1.265       .  A
C2079      C2370   1.432   1_556  S
O2084      C2087   1.269       .  A
O2084     Cd2089   2.481       .  S
C2085      O2094   1.265       .  A
C2085      O2090   1.267       .  A
C2085      C2395   1.437       .  S
O2086      C2092   1.270       .  A
O2086     Cd2089   2.487       .  S
C2087      O2095   1.262       .  A
C2087      C2359   1.434       .  S
C2088      O2093   1.267       .  A
C2088      O2091   1.264       .  A
C2088      C2369   1.433       .  S
Cd2089     O2096   2.399       .  S
Cd2089     O2095   2.425       .  S
Cd2089     O2094   2.468       .  S
Cd2089     O2090   2.455       .  S
Cd2089     O2093   2.456       .  S
Cd2089     O2091   2.442       .  S
C2092      O2096   1.262       .  A
C2092      C2361   1.429       .  S
O2097      C2100   1.266       .  A
O2097     Cd2102   2.446       .  S
C2098      O2107   1.263       .  A
C2098      O2103   1.268       .  A
C2098      C2367   1.430       .  S
O2099      C2105   1.270       .  A
O2099     Cd2102   2.497       .  S
C2100      O2108   1.266       .  A
C2100      C2353   1.438       .  S
C2101      O2106   1.267       .  A
C2101      O2104   1.264       .  A
C2101      C2358   1.432       .  S
Cd2102     O2109   2.400       .  S
Cd2102     O2108   2.479       .  S
Cd2102     O2107   2.424       .  S
Cd2102     O2103   2.471       .  S
Cd2102     O2106   2.458       .  S
Cd2102     O2104   2.438       .  S
C2105      O2109   1.261       .  A
C2105      C2355   1.431       .  S
O2110      C2113   1.265       .  A
O2110     Cd2115   2.437       .  S
C2111      O2120   1.263       .  A
C2111      O2116   1.268       .  A
C2111      C2362   1.430       .  S
O2112      C2118   1.266       .  A
O2112     Cd2115   2.463       .  S
C2113      O2121   1.265       .  A
C2113      C2407   1.434       .  S
C2114      O2119   1.269       .  A
C2114      O2117   1.261       .  A
C2114      C2351   1.432       .  S
Cd2115     O2122   2.438       .  S
Cd2115     O2121   2.478       .  S
Cd2115     O2120   2.426       .  S
Cd2115     O2116   2.468       .  S
Cd2115     O2119   2.499       .  S
Cd2115     O2117   2.403       .  S
C2118      O2122   1.263       .  A
O2123      C2126   1.269       .  A
O2123     Cd2128   2.471       .  S
C2124      O2133   1.265       .  A
C2124      O2129   1.267       .  A
C2124      C2347   1.439       .  S
O2125      C2131   1.267       .  A
O2125     Cd2128   2.470       .  S
C2126      O2134   1.263       .  A
C2126      C2356   1.432       .  S
C2127      O2132   1.270       .  A
C2127      O2130   1.261       .  A
C2127      C2365   1.431       .  S
Cd2128     O2135   2.450       .  S
Cd2128     O2134   2.431       .  S
Cd2128     O2133   2.472       .  S
Cd2128     O2129   2.454       .  S
Cd2128     O2132   2.498       .  S
Cd2128     O2130   2.394       .  S
C2131      O2135   1.264       .  A
C2131      C2350   1.437   1_556  S
O2136      C2139   1.268       .  A
O2136     Cd2141   2.469       .  S
C2137      O2146   1.265       .  A
C2137      O2142   1.267       .  A
C2137      C2400   1.436       .  S
O2138      C2144   1.271       .  A
O2138     Cd2141   2.502       .  S
C2139      O2147   1.264       .  A
C2139      C2352   1.433       .  S
C2140      O2145   1.268       .  A
C2140      O2143   1.264       .  A
C2140      C2349   1.437       .  S
Cd2141     O2148   2.399       .  S
Cd2141     O2147   2.433       .  S
Cd2141     O2146   2.465       .  S
Cd2141     O2142   2.447       .  S
Cd2141     O2145   2.472       .  S
Cd2141     O2143   2.446       .  S
C2144      O2148   1.261       .  A
C2144      C2360   1.433       .  S
O2149      C2152   1.265       .  A
O2149     Cd2154   2.456       .  S
C2150      O2159   1.263       .  A
C2150      O2155   1.268       .  A
C2150      C2341   1.433       .  S
O2151      C2157   1.265       .  A
O2151     Cd2154   2.468       .  S
C2152      C2340   1.438       .  S
C2153      O2158   1.268       .  A
C2153      O2156   1.261       .  A
Cd2154     O2161   2.463       .  S
Cd2154     O2159   2.430       .  S
Cd2154     O2155   2.479       .  S
C2157      O2161   1.264       .  A
C2157      C2345   1.437       .  S
O2162      C2165   1.266       .  A
O2162     Cd2167   2.460       .  S
C2163      O2172   1.262       .  A
C2163      O2168   1.268       .  A
C2163      C2335   1.432       .  S
O2164      C2170   1.269       .  A
O2164     Cd2167   2.492       .  S
C2165      O2173   1.264       .  A
C2165      C2375   1.438       .  S
C2166      O2171   1.266       .  A
C2166      O2169   1.265       .  A
C2166      C2346   1.437       .  S
Cd2167     O2174   2.414       .  S
Cd2167     O2173   2.469       .  S
Cd2167     O2172   2.425       .  S
Cd2167     O2168   2.480       .  S
Cd2167     O2171   2.464       .  S
Cd2167     O2169   2.460       .  S
C2170      O2174   1.262       .  A
C2170      C2337   1.433       .  S
O2175      C2178   1.266       .  A
O2175     Cd2180   2.463       .  S
C2176      O2185   1.263       .  A
C2176      O2181   1.268       .  A
C2176      C2338   1.433       .  S
O2177      C2183   1.270       .  A
O2177     Cd2180   2.509       .  S
C2178      O2186   1.266       .  A
C2178      C2384   1.442       .  S
C2179      O2184   1.267       .  A
C2179      O2182   1.265       .  A
C2179      C2333   1.445       .  S
Cd2180     O2187   2.407       .  S
Cd2180     O2186   2.488       .  S
Cd2180     O2185   2.427       .  S
Cd2180     O2181   2.478       .  S
Cd2180     O2184   2.489       .  S
Cd2180     O2182   2.475       .  S
C2183      O2187   1.261       .  A
C2183      C2332   1.435       .  S
O2188      C2191   1.266       .  A
O2188     Cd2193   2.469       .  S
C2189      O2198   1.263       .  A
C2189      O2194   1.269       .  A
C2189      C2343   1.433       .  S
O2190      C2196   1.267       .  A
O2190     Cd2193   2.489       .  S
C2191      O2199   1.265       .  A
C2191      C2327   1.444       .  S
C2192      O2197   1.270       .  A
C2192      O2195   1.261       .  A
C2192      C2330   1.435       .  S
Cd2193     O2200   2.475       .  S
Cd2193     O2199   2.488       .  S
Cd2193     O2198   2.425       .  S
Cd2193     O2194   2.482       .  S
Cd2193     O2197   2.507       .  S
Cd2193     O2195   2.410       .  S
C2196      O2200   1.265       .  A
C2196      C2334   1.445       .  S
O2201      C2204   1.267       .  A
O2201     Cd2206   2.464       .  S
C2202      O2211   1.263       .  A
C2202      O2207   1.269       .  A
C2202      C2331   1.436       .  S
O2203      C2209   1.269       .  A
O2203     Cd2206   2.497       .  S
C2204      O2212   1.264       .  A
C2204      C2371   1.440       .  S
C2205      O2210   1.266       .  A
C2205      O2208   1.265       .  A
C2205      C2325   1.438       .  S
Cd2206     O2213   2.401       .  S
Cd2206     O2212   2.475       .  S
Cd2206     O2211   2.437       .  S
Cd2206     O2207   2.485       .  S
Cd2206     O2210   2.468       .  S
Cd2206     O2208   2.461       .  S
C2209      O2213   1.261       .  A
C2209      C2336   1.431       .  S
O2214      C2217   1.266       .  A
O2214     Cd2219   2.460       .  S
C2215      O2224   1.263       .  A
C2215      O2220   1.268       .  A
C2215      C2329   1.436       .  S
O2216      C2222   1.266       .  A
O2216     Cd2219   2.472       .  S
C2217      O2225   1.265       .  A
C2217      C2324   1.439       .  S
C2218      O2223   1.269       .  A
C2218      C2342   1.432       .  S
Cd2219     O2226   2.458       .  S
Cd2219     O2225   2.480       .  S
Cd2219     O2224   2.441       .  S
Cd2219     O2220   2.483       .  S
Cd2219     O2221   2.404       .  S
C2222      O2226   1.264       .  A
C2222      C2326   1.438       .  S
O2227      C2230   1.267       .  A
O2227     Cd2232   2.455       .  S
C2228      O2237   1.263       .  A
C2228      O2233   1.269       .  A
C2228      C2317   1.436       .  S
O2229      C2235   1.270       .  A
O2229     Cd2232   2.500       .  S
C2230      C2364   1.437       .  S
C2231      O2236   1.267       .  A
C2231      O2234   1.265       .  A
C2231      C2321   1.436       .  S
Cd2232     O2239   2.404       .  S
Cd2232     O2237   2.436       .  S
Cd2232     O2233   2.482       .  S
Cd2232     O2236   2.466       .  S
Cd2232     O2234   2.453       .  S
C2235      O2239   1.262       .  A
C2235      C2320   1.434       .  S
O2240     Cd2245   2.456       .  S
C2241      O2250   1.263       .  A
C2241      O2246   1.268       .  A
O2242      C2248   1.266       .  A
O2242     Cd2245   2.469       .  S
C2243      O2251   1.265       .  A
C2243      C2339   1.438       .  S
C2244      O2249   1.269       .  A
C2244      O2247   1.261       .  A
C2244      C2315   1.432       .  S
Cd2245     O2252   2.453       .  S
Cd2245     O2250   2.440       .  S
Cd2245     O2246   2.481       .  S
C2248      O2252   1.264       .  A
C2248      C2322   1.436       .  S
O2253      C2256   1.269       .  A
O2253     Cd2258   2.481       .  S
C2254      O2263   1.265       .  A
C2254      O2259   1.266       .  A
C2254      C2328   1.444       .  S
O2255      C2261   1.270       .  A
O2255     Cd2258   2.507       .  S
C2256      O2264   1.263       .  A
C2256      C2309   1.433   1_565  S
C2257      O2262   1.267       .  A
C2257      O2260   1.265       .  A
C2257      C2312   1.444       .  S
Cd2258     O2265   2.404       .  S
Cd2258     O2264   2.428       .  S
Cd2258     O2263   2.487       .  S
Cd2258     O2259   2.468       .  S
Cd2258     O2262   2.488       .  S
Cd2258     O2260   2.470       .  S
C2261      O2265   1.261       .  A
C2261      C2314   1.434       .  S
O2266      C2269   1.268       .  A
O2266     Cd2271   2.475       .  S
C2267      O2276   1.265       .  A
C2267      O2272   1.266       .  A
C2267      C2354   1.438       .  S
O2268      C2274   1.267       .  A
O2268     Cd2271   2.489       .  S
C2269      O2277   1.263       .  A
C2269      C2307   1.433       .  S
C2270      O2275   1.270       .  A
C2270      O2273   1.260       .  A
C2270      C2318   1.435       .  S
Cd2271     O2278   2.473       .  S
Cd2271     O2277   2.432       .  S
Cd2271     O2276   2.477       .  S
Cd2271     O2272   2.456       .  S
Cd2271     O2275   2.511       .  S
Cd2271     O2273   2.408       .  S
C2274      O2278   1.264       .  A
C2274      C2311   1.444       .  S
O2279      C2282   1.268       .  A
C2280      O2289   1.264       .  A
C2280      O2285   1.265   1_655  A
C2280      C2323   1.439       .  S
O2281      C2287   1.268       .  A
O2281     Cd2284   2.495       .  S
C2282      C2316   1.433       .  S
C2283      O2286   1.265       .  A
C2283      C2306   1.438       .  S
Cd2284     O2291   2.418       .  S
Cd2284     O2290   2.428   1_655  S
Cd2284     O2289   2.476       .  S
Cd2284     O2285   2.461   1_655  S
Cd2284     O2288   2.470       .  S
C2287      O2291   1.262       .  A
C2287      C2310   1.433       .  S
O2292      C2295   1.269       .  A
O2292     Cd2297   2.492       .  S
C2293      O2302   1.264       .  A
C2293      O2298   1.267       .  A
C2293      C2348   1.439       .  S
O2294      C2300   1.264       .  A
O2294     Cd2297   2.458       .  S
C2295      O2303   1.262       .  A
C2295      C2319   1.434       .  S
C2296      O2301   1.268       .  A
C2296      O2299   1.262       .  A
C2296      C2308   1.433       .  S
Cd2297     O2304   2.475       .  S
Cd2297     O2303   2.426       .  S
Cd2297     O2302   2.469       .  S
Cd2297     O2298   2.470       .  S
Cd2297     O2301   2.487       .  S
Cd2297     O2299   2.422       .  S
C2300      O2304   1.265       .  A
C2300      C2305   1.438       .  S
C2305      C2306   1.207       .  T
C2307      C2308   1.205       .  T
C2311      C2312   1.211       .  T
C2313      C2314   1.206       .  T
C2315      C2316   1.204       .  T
C2317      C2318   1.206       .  T
C2319      C2320   1.205       .  T
C2321      C2322   1.207       .  T
C2323      C2324   1.208       .  T
C2325      C2326   1.207       .  T
C2327      C2328   1.211       .  T
C2331      C2332   1.206       .  T
C2333      C2334   1.212       .  T
C2335      C2336   1.204       .  T
C2337      C2338   1.205       .  T
C2339      C2340   1.208       .  T
C2341      C2342   1.204       .  T
C2343      C2344   1.205   1_655  T
C2345      C2346   1.207       .  T
C2347      C2348   1.208       .  T
C2349      C2350   1.207       .  T
C2351      C2352   1.204       .  T
C2353      C2354   1.208       .  T
C2355      C2356   1.204       .  T
C2357      C2358   1.205   1_544  T
C2359      C2360   1.205       .  T
C2361      C2362   1.203       .  T
C2363      C2364   1.207       .  T
C2365      C2366   1.204       .  T
C2367      C2368   1.203       .  T
C2369      C2370   1.205       .  T
C2371      C2372   1.209       .  T
C2373      C2374   1.207       .  T
C2375      C2376   1.208       .  T
C2377      C2378   1.204       .  T
C2379      C2380   1.204       .  T
C2381      C2382   1.206       .  T
C2383      C2384   1.210       .  T
C2385      C2386   1.204       .  T
C2387      C2388   1.205       .  T
C2389      C2390   1.204       .  T
C2391      C2392   1.205       .  T
C2393      C2394   1.209       .  T
C2395      C2396   1.207       .  T
C2397      C2398   1.206       .  T
C2399      C2400   1.206       .  T
C2401      C2402   1.204       .  T
C2403      C2404   1.204       .  T
C2405      C2406   1.202       .  T
C2407      C2408   1.205       .  T
C2409      C2410   1.202       .  T
C2411      C2412   1.204       .  T
C2415      C2416   1.204   1_455  T
C2417      C2418   1.204       .  T
C2419      C2420   1.207       .  T
C2421      C2422   1.207       .  T
C2423      C2424   1.205       .  T
C2425      C2426   1.206       .  T
C2427      C2428   1.204       .  T
C2429      C2430   1.208       .  T
C2431      C2432   1.204       .  T
C2433      C2434   1.206       .  T
C2435      C2436   1.208       .  T
C2437      C2438   1.203       .  T
C2439      C2440   1.204       .  T
C2441      C2442   1.205       .  T
C2443      C2444   1.203       .  T
C2447      C2448   1.205       .  T
