geometry optimzed in LAMMPS
_audit_creation_date              2020-12-01 
_audit_creation_method            'lammps2cif' 
_symmetry_space_group_name_H-M    'P1' 
_symmetry_Int_Tables_number       1 
_symmetry_cell_setting            triclinic 
loop_ 
_symmetry_equiv_pos_as_xyz 
  x,y,z 
_cell_length_a                    28.44432028 
_cell_length_b                    28.386020368560818 
_cell_length_c                    43.8599262012109 
_cell_angle_alpha                 90.42437910519004 
_cell_angle_beta                  90.31366226137993 
_cell_angle_gamma                 90.06897430831877 
loop_ 
_atom_site_label 
_atom_site_type_symbol 
_atom_site_fract_x 
_atom_site_fract_y 
_atom_site_fract_z 
_atom_site_charge 
C1          C  0.79260181  0.64857861  0.34355510     0.03700
C2          C  0.81445274  0.62724913  0.36881042    -0.12500
C3          C  0.85908128  0.64237621  0.37943247     0.01200
C4          C  0.87789323  0.68436844  0.36730997    -0.11000
C5          C  0.85346988  0.70938349  0.34452322     0.03700
C6          C  0.81281216  0.68948801  0.33175179    -0.10400
H7          H  0.79772784  0.59739354  0.37942442     0.09300
H8          H  0.91197594  0.69696975  0.37467701     0.06800
H9          H  0.79770148  0.70549988  0.31163608     0.06700
C10         C  0.75027897  0.82396423  0.07586261     0.03700
C11         C  0.71735307  0.85113912  0.05977538    -0.12500
C12         C  0.67478550  0.83105824  0.04884184     0.01200
C13         C  0.66524646  0.78334106  0.05605623    -0.11000
C14         C  0.69669642  0.75685132  0.07411492     0.03700
C15         C  0.74067471  0.77647174  0.08128206    -0.10400
H16         H  0.72410704  0.88841683  0.05704580     0.09300
H17         H  0.63279017  0.76708928  0.04861179     0.06800
H18         H  0.76632841  0.75591507  0.09373861     0.06700
C19         C  0.34924359  0.74582594  0.35086336     0.03700
C20         C  0.37765609  0.77668996  0.36817510    -0.12500
C21         C  0.35982509  0.82032590  0.37872085     0.01200
C22         C  0.31291052  0.83236042  0.37133037    -0.11000
C23         C  0.28504183  0.80247369  0.35293734     0.03700
C24         C  0.30264327  0.75821907  0.34460003    -0.10400
H25         H  0.41431367  0.76796335  0.37183285     0.09300
H26         H  0.29869463  0.86591035  0.37862065     0.06800
H27         H  0.28120654  0.73474288  0.33071935     0.06700
C28         C  0.87104484  0.27801927  0.09971224     0.03700
C29         C  0.82458787  0.29116434  0.10503821    -0.12500
C30         C  0.80463416  0.32890543  0.08963464     0.01200
C31         C  0.83022232  0.35231224  0.06712586    -0.11000
C32         C  0.87811831  0.34141181  0.06178022     0.03700
C33         C  0.89832611  0.30456775  0.07922061    -0.10400
H34         H  0.80378087  0.27236414  0.12165805     0.09300
H35         H  0.81255559  0.37987302  0.05465346     0.06800
H36         H  0.93535629  0.29672391  0.07781428     0.06700
C37         C  0.12365264  0.88429524  0.29261372     0.43000
N38         N  0.10015062  0.93418843  0.25919289     0.01900
C39         C  0.89749262  0.07018908  0.26342859    -0.06000
H40         H  0.87205874  0.89209637  0.24235340     0.07400
C41         C  0.95009389  0.91487387  0.14119882    -0.06300
Co42       Co  0.01487786  0.98687759  0.27899283     0.74200
N43         N  0.93062420  0.93814766  0.25333094    -0.25500
Co44       Co  0.93277750  0.99269155  0.22054573     0.74100
C45         C  0.90312000  0.89847896  0.15005756     0.43100
N46         N  0.06906470  0.93387775  0.16936512     0.01500
N47         N  0.93153344  0.94405494  0.18511833     0.01600
N48         N  0.94815228  0.06370314  0.30282970    -0.46300
H49         H  0.06003462  0.90073224  0.32347605     0.07400
N50         N  0.96305126  0.93635473  0.27505612     0.01900
N51         N  0.94069411  0.04704740  0.18798953     0.01700
C52         C  0.93557293  0.10966002  0.16091455     0.43300
N53         N  0.10157441  0.93227898  0.19103707    -0.25000
C54         C  0.07219306  0.07342540  0.29895156    -0.05900
N55         N  0.13423916  0.90440220  0.26576398    -0.46100
N56         N  0.91574030  0.08630337  0.18454049    -0.46300
C57         C  0.11466908  0.09685611  0.28900155     0.43000
N58         N  0.96224541  0.03843520  0.27896216     0.01900
N59         N  0.10928545  0.03421782  0.19156302    -0.25000
N60         N  0.06735886  0.93562314  0.28022690    -0.25500
N61         N  0.07936907  0.03537615  0.16855932     0.01500
H62         H  0.17812712  0.06369159  0.19870151     0.07400
H63         H  0.99915552  0.08845963  0.13182831     0.07500
N64         N  0.93230175  0.04077079  0.25604045    -0.25500
N65         N  0.96466670  0.94292574  0.16430130    -0.25100
N66         N  0.10204972  0.03702798  0.25996339     0.01900
C67         C  0.92134395  0.87517400  0.28287084     0.43300
C68         C  0.12866241  0.89433309  0.18588674    -0.06400
N69         N  0.97517061  0.04403495  0.16796533    -0.25100
H70         H  0.96833372  0.90999603  0.11984515     0.07500
N71         N  0.95884841  0.89949920  0.29300844    -0.46300
H72         H  0.15837997  0.88345857  0.19960343     0.07400
C73         C  0.13686336  0.07970601  0.15482565     0.43100
C74         C  0.07892411  0.90509223  0.30236916    -0.05900
Co75       Co  0.10414992  0.98452115  0.22552689     0.73800
N76         N  0.07177509  0.89873061  0.14957236    -0.46100
C77         C  0.90791799  0.08567308  0.29445512     0.43400
N78         N  0.13149101  0.07278539  0.26457742    -0.46100
Co79       Co  0.02205121  0.98890826  0.16707998     0.73900
C80         C  0.97461548  0.08157228  0.15001035    -0.06400
C81         C  0.90182706  0.90085664  0.25675763    -0.05900
N82         N  0.06722842  0.03709142  0.27983089    -0.25500
N83         N  0.89433731  0.91865700  0.17737145    -0.46200
H84         H  0.86542245  0.07477381  0.25042094     0.07400
C85         C  0.14613305  0.06170479  0.18530661    -0.06400
Cl86       Cl  0.01846704  0.98827318  0.22303499    -0.49400
C87         C  0.10841058  0.87234936  0.15849163     0.43200
H88         H  0.04872539  0.08232953  0.31743275     0.07400
N89         N  0.09505459  0.06141601  0.14570514    -0.46100
C90         C  0.23711027  0.65081362  0.09066225     0.03700
C91         C  0.21339396  0.62711394  0.06683460    -0.12500
C92         C  0.16830197  0.64174297  0.05719625     0.01200
C93         C  0.14842823  0.68230585  0.07071878    -0.11000
C94         C  0.17201923  0.70625200  0.09450270     0.03700
C95         C  0.21511933  0.68891009  0.10490246    -0.10400
H96         H  0.22963301  0.59674602  0.05615361     0.09300
H97         H  0.11428973  0.69452020  0.06328152     0.06800
H98         H  0.23148824  0.70508555  0.12473716     0.06700
C99         C  0.74316654  0.15201446  0.35603361     0.03700
C100        C  0.72533734  0.19229968  0.34165515    -0.12500
C101        C  0.67872610  0.20679969  0.34603702     0.01200
C102        C  0.64910398  0.17919369  0.36440821    -0.11000
C103        C  0.66603081  0.13882487  0.37956028     0.03700
C104        C  0.71358339  0.12613433  0.37543463    -0.10400
H105        H  0.74699975  0.21087449  0.32543638     0.09300
H106        H  0.61237581  0.18860545  0.36608510     0.06800
H107        H  0.72744425  0.09517906  0.38660028     0.06700
C108        C  0.16260765  0.35265985  0.36217118     0.03700
C109        C  0.19930596  0.37398763  0.34575604    -0.12500
C110        C  0.22598506  0.34742900  0.32471393     0.01200
C111        C  0.21357928  0.30018632  0.31935998    -0.11000
C112        C  0.17559763  0.27920718  0.33406370     0.03700
C113        C  0.15189734  0.30498700  0.35663032    -0.10400
H114        H  0.20587241  0.41126909  0.34875848     0.09300
H115        H  0.23308969  0.27960196  0.30291533     0.06800
H116        H  0.12395914  0.28841645  0.36937093     0.06700
C117        C  0.35750097  0.13491315  0.04789650     0.03700
C118        C  0.37143908  0.18236642  0.05110978    -0.12500
C119        C  0.34717997  0.21332594  0.07049621     0.01200
C120        C  0.30603010  0.19803583  0.08470343    -0.11000
C121        C  0.29142043  0.15088048  0.08232094     0.03700
C122        C  0.31750783  0.11945156  0.06399980    -0.10400
H123        H  0.40271068  0.19493110  0.03977112     0.09300
H124        H  0.28698935  0.22230717  0.09925197     0.06800
H125        H  0.30779233  0.08255393  0.06351732     0.06700
C126        C  0.63511072  0.57077565  0.27467871     0.43000
N127        N  0.57796132  0.56072377  0.24306064     0.01900
C128        C  0.42092672  0.37748571  0.23549392    -0.06000
H129        H  0.58987376  0.32005727  0.22679438     0.07400
C130        C  0.60497075  0.43087799  0.12811298    -0.06300
Co131      Co  0.52067182  0.47710410  0.26051730     0.74200
N132        N  0.56383344  0.39019865  0.23459846    -0.25500
Co133      Co  0.51488080  0.39822604  0.20005084     0.74100
C134        C  0.62726942  0.38775305  0.13811246     0.43100
N135        N  0.57134335  0.54197426  0.15062246     0.01500
N136        N  0.56800217  0.40119285  0.16665555     0.01600
N137        N  0.42796083  0.42991769  0.27429408    -0.46300
H138        H  0.61594499  0.50409874  0.30128779     0.07400
N139        N  0.56648699  0.41944647  0.25799786     0.01900
N140        N  0.46526031  0.40400493  0.16575813     0.01700
C141        C  0.41869366  0.37941247  0.13012946     0.43300
N142        N  0.57388844  0.57047409  0.17444165    -0.25000
C143        C  0.44605565  0.54792911  0.28675543    -0.05900
N144        N  0.61302002  0.58983883  0.25020506    -0.46100
N145        N  0.43730235  0.36898613  0.15754667    -0.46300
C146        C  0.42917843  0.59489858  0.27814876     0.43000
N147        N  0.46499192  0.43076146  0.25634939     0.01900
N148        N  0.47145847  0.57297398  0.17598840    -0.25000
N149        N  0.57570084  0.52461862  0.26190883    -0.25500
N150        N  0.46929180  0.54202082  0.15330385     0.01500
H151        H  0.42541743  0.63009492  0.18932007     0.07400
H152        H  0.43703942  0.44298829  0.10002975     0.07500
N153        N  0.46198591  0.40063070  0.23334483    -0.25500
N154        N  0.56878183  0.43643994  0.14705642    -0.25100
N155        N  0.47603705  0.56851872  0.24374529     0.01900
C156        C  0.60798902  0.35942711  0.27122263     0.43300
C157        C  0.60515122  0.60438750  0.16885912    -0.06400
N158        N  0.46744430  0.43735864  0.14514738    -0.25100
H159        H  0.61461769  0.45439236  0.10988631     0.07500
N160        N  0.59190141  0.40191782  0.28074435    -0.46300
H161        H  0.61094603  0.63506862  0.18317048     0.07400
C162        C  0.40790392  0.58408048  0.14721943     0.43100
C163        C  0.61052987  0.52763613  0.28231184    -0.05900
Co164      Co  0.52514111  0.56904973  0.20927066     0.73800
N165        N  0.59852175  0.55616001  0.12786638    -0.46100
C166        C  0.39818726  0.39736058  0.26278825     0.43400
N167        N  0.44988184  0.60505088  0.25144583    -0.46100
Co168      Co  0.51920609  0.48970222  0.14846505     0.73900
C169        C  0.43897936  0.42508841  0.12168041    -0.06400
C170        C  0.58929853  0.35176826  0.24061254    -0.05900
N171        N  0.47485887  0.53456262  0.26400269    -0.25500
N172        N  0.60321177  0.37126883  0.16232847    -0.46200
H173        H  0.40878295  0.35115311  0.21942836     0.07400
C174        C  0.43411262  0.60178459  0.17372726    -0.06400
Cl175      Cl  0.52023449  0.48353337  0.20457789    -0.49400
C176        C  0.62156246  0.59512390  0.13793808     0.43200
H177        H  0.44041689  0.52870616  0.30761595     0.07400
N178        N  0.43186327  0.54728578  0.13573202    -0.46100
C179        C  0.47554404  0.95639830  0.47951253     0.02800
C180        C  0.47960171  0.95129145  0.44736540     0.02800
C181        C  0.51059072  0.98156884  0.43156956    -0.17700
C182        C  0.53864676  0.01536981  0.44700045     0.02800
C183        C  0.53438030  0.01949764  0.47906194     0.02800
C184        C  0.50217911  0.99127098  0.49443296    -0.17700
H185        H  0.49929001  0.99531191  0.51898480     0.04900
H186        H  0.51319452  0.97846835  0.40699143     0.04900
C187        C  0.98842649  0.46074909  0.98043587     0.02800
C188        C  0.98590503  0.46175116  0.94813999     0.02800
C189        C  0.01569086  0.49291289  0.93237028    -0.17700
C190        C  0.04736899  0.52330412  0.94782802     0.02800
C191        C  0.04970404  0.52184182  0.98021765     0.02800
C192        C  0.01971580  0.49096511  0.99581366    -0.17700
H193        H  0.02032996  0.49067118  0.02053391     0.04900
H194        H  0.01441638  0.49321752  0.90766822     0.04900
C195        C  0.97602804  0.51304406  0.44986209     0.02800
C196        C  0.97760820  0.50869515  0.48204732     0.02800
C197        C  0.00957432  0.47631879  0.49503795    -0.17700
C198        C  0.04037875  0.44887214  0.47698910     0.02800
C199        C  0.03827148  0.45355348  0.44474349     0.02800
C200        C  0.00633391  0.48562050  0.43191008    -0.17700
H201        H  0.00568672  0.49013301  0.40737823     0.04900
H202        H  0.01025452  0.47203652  0.51955744     0.04900
C203        C  0.54413936  0.95010795  0.97958379     0.02800
C204        C  0.54345795  0.94950349  0.94721950     0.02800
C205        C  0.50958401  0.97622132  0.93161039    -0.17700
C206        C  0.47771130  0.00544845  0.94694778     0.02800
C207        C  0.47881445  0.00724249  0.97924944     0.02800
C208        C  0.51135343  0.97870830  0.99507821    -0.17700
H209        H  0.51184870  0.97956706  0.01981166     0.04900
H210        H  0.50836569  0.97487538  0.90689949     0.04900
C211        C  0.67406564  0.76989537  0.83556572     0.03700
C212        C  0.71628632  0.78888394  0.82487614    -0.12500
C213        C  0.73504296  0.83024141  0.83754906     0.01200
C214        C  0.71015196  0.85398350  0.86054327    -0.11000
C215        C  0.66653143  0.83678222  0.87071483     0.03700
C216        C  0.64893253  0.79455861  0.85807388    -0.10400
H217        H  0.73414279  0.77207480  0.80594995     0.09300
H218        H  0.72440725  0.88631662  0.87009509     0.06800
H219        H  0.61502394  0.78140959  0.86515569     0.06700
C220        C  0.78017078  0.33090839  0.85282133     0.03700
C221        C  0.81032728  0.35556330  0.87294759    -0.12500
C222        C  0.85769254  0.34185512  0.87698400     0.01200
C223        C  0.87399966  0.30165863  0.86110007    -0.11000
C224        C  0.84374025  0.27526723  0.84205904     0.03700
C225        C  0.79700503  0.29003350  0.83835294    -0.10400
H226        H  0.79706327  0.38598664  0.88516054     0.09300
H227        H  0.91064933  0.29168190  0.86257739     0.06800
H228        H  0.77401970  0.27033612  0.82316276     0.06700
C229        C  0.37578934  0.12052088  0.85812012     0.03700
C230        C  0.33945819  0.09841374  0.84080891    -0.12500
C231        C  0.31451516  0.12300968  0.81816845     0.01200
C232        C  0.32893522  0.16805351  0.81028331    -0.11000
C233        C  0.36437796  0.19117352  0.82651677     0.03700
C234        C  0.38623196  0.16820988  0.85124368    -0.10400
H235        H  0.32964183  0.06219884  0.84473921     0.09300
H236        H  0.31082829  0.18621740  0.79202112     0.06800
H237        H  0.41025553  0.18842538  0.86525672     0.06700
C238        C  0.17468999  0.72975923  0.85422685     0.03700
C239        C  0.21696810  0.71369745  0.84166094    -0.12500
C240        C  0.23373851  0.66858870  0.84806763     0.01200
C241        C  0.20821230  0.63887146  0.86723430    -0.11000
C242        C  0.16616659  0.65430869  0.88077047     0.03700
C243        C  0.15015633  0.70037691  0.87451822    -0.10400
H244        H  0.23563320  0.73524005  0.82537661     0.09300
H245        H  0.21998800  0.60292618  0.87020414     0.06800
H246        H  0.11768662  0.71276577  0.88453946     0.06700
C247        C  0.17350296  0.32680581  0.54161740     0.03700
C248        C  0.21837460  0.34021997  0.55285581    -0.12500
C249        C  0.24471371  0.30968859  0.57165611     0.01200
C250        C  0.22726481  0.26423823  0.57726691    -0.11000
C251        C  0.18281550  0.25028629  0.56682621     0.03700
C252        C  0.15635828  0.28164892  0.54903078    -0.10400
H253        H  0.23192278  0.37498120  0.54820261     0.09300
H254        H  0.24670648  0.24100249  0.59220510     0.06800
H255        H  0.12110726  0.27144817  0.54222894     0.06700
C256        C  0.64757095  0.18445291  0.60986828     0.03700
C257        C  0.62226033  0.16156819  0.58646188    -0.12500
C258        C  0.64350467  0.12612591  0.56846927     0.01200
C259        C  0.69015780  0.11293481  0.57585099    -0.11000
C260        C  0.71346576  0.13215902  0.60145620     0.03700
C261        C  0.69173574  0.16790803  0.61816867    -0.10400
H262        H  0.58634091  0.17220754  0.58251519     0.09300
H263        H  0.70874630  0.08786097  0.56170149     0.06800
H264        H  0.71003101  0.18433595  0.63720238     0.06700
C265        C  0.39314928  0.59255218  0.78303378     0.43000
N266        N  0.41960648  0.54009214  0.75174227     0.01900
C267        C  0.62166569  0.40475346  0.76324989    -0.06000
H268        H  0.64908855  0.58138498  0.73879496     0.07400
C269        C  0.57659566  0.55588862  0.63885545    -0.06300
Co270      Co  0.50485081  0.49086845  0.77510230     0.74200
N271        N  0.58990117  0.53737134  0.75047809    -0.25500
Co272      Co  0.58932460  0.48125229  0.71911238     0.74100
C273        C  0.62276352  0.57326859  0.64959502     0.43100
N274        N  0.45524042  0.53570375  0.66307492     0.01500
N275        N  0.59204493  0.52819313  0.68345636     0.01600
N276        N  0.57059470  0.41460623  0.80179435    -0.46300
H277        H  0.45606372  0.57977606  0.81581991     0.07400
N278        N  0.55664857  0.54163493  0.77126674     0.01900
N279        N  0.58359430  0.42555605  0.68744603     0.01700
C280        C  0.59004432  0.36118875  0.66233914     0.43300
N281        N  0.42248304  0.53797613  0.68431963    -0.25000
C282        C  0.44906159  0.40419717  0.79480677    -0.05900
N283        N  0.38450553  0.56950098  0.75660103    -0.46100
N284        N  0.60826269  0.38591017  0.68614837    -0.46300
C285        C  0.40897659  0.37773324  0.78354407     0.43000
N286        N  0.55783875  0.43943975  0.77753359     0.01900
N287        N  0.41625553  0.43558386  0.68561006    -0.25000
N288        N  0.45152889  0.54145195  0.77352685    -0.25500
N289        N  0.44727494  0.43384344  0.66345911     0.01500
H290        H  0.34849577  0.40379478  0.69165322     0.07400
H291        H  0.52929796  0.38006863  0.63007855     0.07500
N292        N  0.58814686  0.43514410  0.75515255    -0.25500
N293        N  0.56049147  0.52828757  0.66142373    -0.25100
N294        N  0.41999466  0.43704058  0.75439662     0.01900
C295        C  0.59886436  0.60305552  0.77741528     0.43300
C296        C  0.39723555  0.57716543  0.67989081    -0.06400
N297        N  0.55086732  0.42734021  0.66598096    -0.25100
H298        H  0.55990782  0.55945932  0.61681814     0.07500
N299        N  0.56065558  0.58046301  0.78789353    -0.46300
H300        H  0.36822018  0.58882277  0.69383835     0.07400
C301        C  0.39283387  0.38535300  0.64947423     0.43100
C302        C  0.43820916  0.57373253  0.79437588    -0.05900
Co303      Co  0.41853257  0.48740268  0.71902627     0.73800
N304        N  0.45408348  0.57154338  0.64403074    -0.46100
C305        C  0.61010659  0.39064738  0.79415307     0.43400
N306        N  0.39257463  0.39960374  0.75822102    -0.46100
Co307      Co  0.50347771  0.48150305  0.66282782     0.73900
C308        C  0.55254065  0.38855511  0.64893194    -0.06400
C309        C  0.61888774  0.57449497  0.75295695    -0.05900
N310        N  0.45331330  0.43984915  0.77549679    -0.25500
N311        N  0.62928166  0.55408251  0.67728851    -0.46200
H312        H  0.65369609  0.39834951  0.75070533     0.07400
C313        C  0.38094383  0.40605106  0.67901837    -0.06400
Cl314      Cl  0.50399423  0.48522558  0.71903083    -0.49400
C315        C  0.41864014  0.59940182  0.65334305     0.43200
H316        H  0.47225300  0.39691962  0.81381409     0.07400
N317        N  0.43408314  0.40502388  0.64098407    -0.46100
C318        C  0.84538398  0.70574017  0.58171503     0.03700
C319        C  0.87160634  0.67611906  0.56231594    -0.12500
C320        C  0.85550484  0.63052834  0.55454528     0.01200
C321        C  0.81222928  0.61509247  0.56638756    -0.11000
C322        C  0.78550279  0.64460082  0.58537309     0.03700
C323        C  0.80215504  0.68967727  0.59286591    -0.10400
H324        H  0.90524117  0.68820605  0.55390831     0.09300
H325        H  0.80037349  0.57935058  0.56218538     0.06800
H326        H  0.78274056  0.71101869  0.60905084     0.06700
C327        C  0.30338066  0.83558929  0.60006081     0.03700
C328        C  0.32891005  0.86192826  0.57872511    -0.12500
C329        C  0.37089300  0.84403176  0.56627701     0.01200
C330        C  0.38758346  0.79985315  0.57602888    -0.11000
C331        C  0.36199522  0.77339312  0.59717437     0.03700
C332        C  0.31907093  0.79064173  0.60772024    -0.10400
H333        H  0.31673340  0.89663491  0.57230500     0.09300
H334        H  0.42063018  0.78646051  0.56749325     0.06800
H335        H  0.29813713  0.76905993  0.62276224     0.06700
C336        C  0.89690058  0.90619458  0.77682359     0.43000
N337        N  0.95922817  0.91391000  0.75020612     0.01900
C338        C  0.10699637  0.10197469  0.74044951    -0.06000
H339        H  0.92984078  0.15008173  0.72974490     0.07400
C340        C  0.92111915  0.03244404  0.63597419    -0.06300
Co341      Co  0.01073924  0.00165604  0.76742566     0.74200
N342        N  0.96235907  0.08379996  0.73990219    -0.25500
Co343      Co  0.01173568  0.07687104  0.70580209     0.74100
C344        C  0.89631966  0.07484802  0.64505899     0.43100
N345        N  0.96310189  0.92654937  0.65895365     0.01500
N346        N  0.95839931  0.06856949  0.67257780     0.01600
N347        N  0.10158121  0.05224259  0.78032361    -0.46300
H348        H  0.91084586  0.97495483  0.80337674     0.07400
N349        N  0.96171329  0.05621999  0.76385744     0.01900
N350        N  0.06073130  0.07200672  0.67151996     0.01700
C351        C  0.10511480  0.09643352  0.63546208     0.43300
N352        N  0.96405927  0.89873133  0.68284282    -0.25000
C353        C  0.08819244  0.93707382  0.79580609    -0.05900
N354        N  0.92295060  0.88543853  0.75478136    -0.46100
N355        N  0.08649191  0.10801962  0.66261474    -0.46300
C356        C  0.10773063  0.89064944  0.78856228     0.43000
N357        N  0.06359467  0.05064297  0.76299258     0.01900
N358        N  0.06599260  0.90406427  0.68402142    -0.25000
N359        N  0.95843967  0.95123385  0.76845353    -0.25500
N360        N  0.06438800  0.93297936  0.66052607     0.01500
H361        H  0.11528551  0.84959752  0.69662439     0.07400
H362        H  0.09048442  0.02967180  0.60672922     0.07500
N363        N  0.06553654  0.07904779  0.73927828    -0.25500
N364        N  0.95883193  0.03152139  0.65411481    -0.25100
N365        N  0.06185660  0.91269446  0.75220915     0.01900
C366        C  0.91441022  0.11303570  0.77505802     0.43300
C367        C  0.93678946  0.86122941  0.67738328    -0.06400
N368        N  0.06004358  0.03712589  0.65156350    -0.25100
H369        H  0.91232233  0.00649072  0.61868481     0.07500
N370        N  0.93434271  0.07306481  0.78583148    -0.46300
H371        H  0.93463043  0.83043811  0.69169207     0.07400
C372        C  0.12613741  0.89223111  0.65245012     0.43100
C373        C  0.92040703  0.94942016  0.78607498    -0.05900
Co374      Co  0.01288191  0.90650092  0.71746794     0.73800
N375        N  0.93733362  0.90861039  0.63632498    -0.46100
C376        C  0.13093054  0.08350540  0.76768751     0.43400
N377        N  0.08899561  0.87784098  0.76144964    -0.46100
Co378      Co  0.01155825  0.98192966  0.65578643     0.73900
C379        C  0.08757129  0.04912093  0.62792849    -0.06400
C380        C  0.93306259  0.11988233  0.74450103    -0.05900
N381        N  0.06004461  0.94762711  0.77206060    -0.25500
N382        N  0.92111168  0.09564234  0.66793903    -0.46200
H383        H  0.11960493  0.12650461  0.72361443     0.07400
C384        C  0.10436104  0.87684288  0.68101672    -0.06400
Cl385      Cl  0.01167186  0.99172151  0.71159168    -0.49400
C386        C  0.91893687  0.86768456  0.64655641     0.43200
H387        H  0.09072314  0.95702370  0.81685581     0.07400
N388        N  0.09945412  0.92717867  0.64133367    -0.46100
C389        C  0.22481173  0.87341367  0.59571365    -0.11700
C390        C  0.25966674  0.85363626  0.61428390     0.05300
C391        C  0.25030291  0.84695072  0.64569698    -0.07000
C392        C  0.20596906  0.85800138  0.65737205    -0.07700
C393        C  0.17115047  0.87759135  0.63875748    -0.02300
C394        C  0.18097514  0.88564069  0.60764148     0.04500
N395        N  0.14624000  0.90453761  0.58750838     0.67000
H396        H  0.23102469  0.87801483  0.57155901     0.15900
H397        H  0.19948923  0.85299806  0.68145036     0.15600
N398        N  0.28587778  0.83046001  0.66626043     0.74700
O399        O  0.14850009  0.94722725  0.57981863    -0.38700
O400        O  0.11843715  0.87707427  0.57358775    -0.38700
O401        O  0.32386404  0.85307365  0.66930384    -0.39400
O402        O  0.27737704  0.79641444  0.68375948    -0.39400
C403        C  0.91083510  0.74821931  0.60778601    -0.11700
C404        C  0.86609608  0.75012629  0.59421126     0.05300
C405        C  0.84023630  0.79262848  0.59610027    -0.07000
C406        C  0.85880094  0.83146368  0.61221838    -0.07700
C407        C  0.90284375  0.82876490  0.62650500    -0.02300
C408        C  0.92936219  0.78694193  0.62373536     0.04500
N409        N  0.97505207  0.78308422  0.63729033     0.67000
H410        H  0.93100726  0.71586995  0.60688122     0.15900
H411        H  0.83825212  0.86346138  0.61420107     0.15600
N412        N  0.79509146  0.79680915  0.58187328     0.74700
O413        O  0.98230783  0.75343103  0.65808793    -0.38700
O414        O  0.00934788  0.80478941  0.62582851    -0.38700
O415        O  0.75959480  0.80724836  0.59767660    -0.39400
O416        O  0.79174275  0.79602075  0.55317568    -0.39400
C417        C  0.41265175  0.65044015  0.60783274    -0.11700
C418        C  0.40727552  0.64504891  0.63944859     0.05300
C419        C  0.39054841  0.68308502  0.65704588    -0.07000
C420        C  0.37769178  0.72480326  0.64270536    -0.07700
C421        C  0.38049716  0.72956078  0.61088199    -0.02300
C422        C  0.39887563  0.69211189  0.59336263     0.04500
N423        N  0.40082587  0.69456404  0.56085467     0.67000
H424        H  0.42558387  0.62136933  0.59409658     0.15900
H425        H  0.36529002  0.75387601  0.65665101     0.15600
N426        N  0.38785289  0.68063899  0.68955802     0.74700
O427        O  0.44011647  0.69452798  0.54763214    -0.38700
O428        O  0.36363657  0.68978096  0.54531527    -0.38700
O429        O  0.42510800  0.68061083  0.70531954    -0.39400
O430        O  0.34867000  0.68529332  0.70260043    -0.39400
C431        C  0.70774965  0.59262852  0.64602201    -0.11700
C432        C  0.66280761  0.59397287  0.63232652     0.05300
C433        C  0.65869311  0.61258869  0.60258167    -0.07000
C434        C  0.69909473  0.62815261  0.58717236    -0.07700
C435        C  0.74354372  0.62627553  0.60111473    -0.02300
C436        C  0.74765138  0.60853379  0.63079551     0.04500
N437        N  0.79243991  0.60603119  0.64565621     0.67000
H438        H  0.71239594  0.57869561  0.66876675     0.15900
H439        H  0.69565189  0.64261457  0.56447145     0.15600
N440        N  0.61396072  0.61739085  0.58802567     0.74700
O441        O  0.80791217  0.64116074  0.66039316    -0.38700
O442        O  0.81367149  0.56711767  0.64724830    -0.38700
O443        O  0.58714351  0.65075684  0.59571877    -0.39400
O444        O  0.60473939  0.59360267  0.56431620    -0.39400
C445        C  0.63214999  0.23509258  0.65552824    -0.11700
C446        C  0.63114249  0.22909039  0.62361249     0.05300
C447        C  0.61895715  0.26755832  0.60497227    -0.07000
C448        C  0.60582106  0.31001522  0.61849860    -0.07700
C449        C  0.60634291  0.31590847  0.65020340    -0.02300
C450        C  0.61998794  0.27832425  0.66895874     0.04500
N451        N  0.61961878  0.28287529  0.70146698     0.67000
H452        H  0.64204418  0.20595582  0.67003874     0.15900
H453        H  0.59672600  0.33937370  0.60394983     0.15600
N454        N  0.62270912  0.26530159  0.57239351     0.74700
O455        O  0.58109380  0.28712831  0.71535568    -0.38700
O456        O  0.65727832  0.27833183  0.71649567    -0.38700
O457        O  0.59136814  0.28395309  0.55596274    -0.39400
O458        O  0.66089534  0.25262100  0.56031992    -0.39400
C459        C  0.79425022  0.15084525  0.62018420    -0.11700
C460        C  0.76114529  0.11664751  0.61087230     0.05300
C461        C  0.77338125  0.06854528  0.61252240    -0.07000
C462        C  0.81811723  0.05585948  0.62299267    -0.07700
C463        C  0.85031622  0.09010739  0.63327211    -0.02300
C464        C  0.83800423  0.13794427  0.63196934     0.04500
N465        N  0.86982819  0.17388964  0.64200632     0.67000
H466        H  0.78602434  0.18800851  0.61857260     0.15900
H467        H  0.82679654  0.01878844  0.62448173     0.15600
N468        N  0.73997578  0.03216202  0.60565876     0.74700
O469        O  0.90017402  0.18978213  0.62389206    -0.38700
O470        O  0.86360315  0.19394542  0.66743632    -0.38700
O471        O  0.74906820  0.00161680  0.58549071    -0.39400
O472        O  0.70445026  0.02688404  0.62241728    -0.39400
C473        C  0.16405623  0.12643705  0.59832465    -0.11700
C474        C  0.12178875  0.13277333  0.61407837     0.05300
C475        C  0.09784726  0.17616132  0.61163146    -0.07000
C476        C  0.11732706  0.21282476  0.59479143    -0.07700
C477        C  0.16049390  0.20745908  0.57987422    -0.02300
C478        C  0.18363909  0.16336628  0.58130155     0.04500
N479        N  0.22715423  0.15573833  0.56587553     0.67000
H480        H  0.18265377  0.09325061  0.60002486     0.15900
H481        H  0.09926800  0.24641918  0.59436516     0.15600
N482        N  0.05381090  0.18378667  0.62647357     0.74700
O483        O  0.26344580  0.14469782  0.58087556    -0.38700
O484        O  0.22774750  0.15333881  0.53714361    -0.38700
O485        O  0.05074661  0.21394594  0.64765512    -0.39400
O486        O  0.01698380  0.16472889  0.61595707    -0.39400
C487        C  0.35905980  0.37075065  0.59725447    -0.11700
C488        C  0.35904659  0.36107827  0.62868646     0.05300
C489        C  0.32300408  0.33249109  0.64054187    -0.07000
C490        C  0.28648090  0.31698526  0.62150135    -0.07700
C491        C  0.28578648  0.32690254  0.59011507    -0.02300
C492        C  0.32312838  0.35356404  0.57788784     0.04500
N493        N  0.32556088  0.36278837  0.54593172     0.67000
H494        H  0.38660400  0.39245679  0.58773509     0.15900
H495        H  0.25823050  0.29679586  0.63152692     0.15600
N496        N  0.32334372  0.31810796  0.67180860     0.74700
O497        O  0.32530999  0.40471575  0.53655882    -0.38700
O498        O  0.33456969  0.32964095  0.52755249    -0.38700
O499        O  0.28662133  0.32182658  0.68767379    -0.39400
O500        O  0.35865205  0.29693073  0.68257940    -0.39400
C501        C  0.31892404  0.64938726  0.84594889    -0.11700
C502        C  0.27497486  0.65061674  0.83153009     0.05300
C503        C  0.27094183  0.63685557  0.80082503    -0.07000
C504        C  0.31053387  0.62067200  0.78522900    -0.07700
C505        C  0.35469131  0.61707878  0.79983541    -0.02300
C506        C  0.35881087  0.63317889  0.83037542     0.04500
N507        N  0.40304472  0.63487603  0.84578031     0.67000
H508        H  0.32235662  0.66149768  0.86935220     0.15900
H509        H  0.30606161  0.60931468  0.76175438     0.15600
N510        N  0.22642735  0.63793191  0.78549644     0.74700
O511        O  0.42695975  0.67225683  0.84468017    -0.38700
O512        O  0.41165261  0.60541155  0.86646799    -0.38700
O513        O  0.21841189  0.66862151  0.76547133    -0.39400
O514        O  0.19467728  0.60890298  0.79246231    -0.39400
C515        C  0.18281197  0.81494406  0.84012748    -0.11700
C516        C  0.15416659  0.77455547  0.84268253     0.05300
C517        C  0.10802853  0.77588114  0.83057584    -0.07000
C518        C  0.09252299  0.81591293  0.81509659    -0.07700
C519        C  0.12224417  0.85469930  0.81079781    -0.02300
C520        C  0.16709661  0.85492313  0.82435938     0.04500
N521        N  0.19819321  0.89392508  0.82029791     0.67000
H522        H  0.21823003  0.81468813  0.84934925     0.15900
H523        H  0.05793459  0.81544910  0.80457936     0.15600
N524        N  0.07814902  0.73529499  0.83093003     0.74700
O525        O  0.19388662  0.93044980  0.83661049    -0.38700
O526        O  0.22838258  0.89288457  0.79933315    -0.38700
O527        O  0.03827584  0.73774103  0.84331513    -0.39400
O528        O  0.08848714  0.69955767  0.81504930    -0.39400
C529        C  0.34012840  0.27194160  0.81056405    -0.11700
C530        C  0.37660384  0.23994391  0.81727919     0.05300
C531        C  0.42354494  0.25389222  0.81238998    -0.07000
C532        C  0.43300844  0.29903345  0.80143340    -0.07700
C533        C  0.39651178  0.33015636  0.79387097    -0.02300
C534        C  0.34970527  0.31629871  0.79831881     0.04500
N535        N  0.31170523  0.34738797  0.79145578     0.67000
H536        H  0.30380860  0.26217338  0.81441834     0.15900
H537        H  0.46927052  0.30920449  0.79772708     0.15600
N538        N  0.46177998  0.22184808  0.81646245     0.74700
O539        O  0.29301169  0.34628458  0.76530371    -0.38700
O540        O  0.29218366  0.37022961  0.81266716    -0.38700
O541        O  0.46530215  0.18641182  0.79907731    -0.39400
O542        O  0.49617346  0.23350734  0.83318940    -0.39400
C543        C  0.26234285  0.10888472  0.77298049    -0.11700
C544        C  0.26985333  0.10534589  0.80463790     0.05300
C545        C  0.23196803  0.09253396  0.82340662    -0.07000
C546        C  0.18757978  0.08470097  0.81051867    -0.07700
C547        C  0.17948093  0.09043964  0.77912674    -0.02300
C548        C  0.21768524  0.10137034  0.76001677     0.04500
N549        N  0.21226311  0.10360880  0.72755333     0.67000
H550        H  0.29136222  0.11824605  0.75829395     0.15900
H551        H  0.15864438  0.07616394  0.82549255     0.15600
N552        N  0.23690459  0.09157823  0.85586668     0.74700
O553        O  0.22925399  0.13786738  0.71308412    -0.38700
O554        O  0.19649214  0.06843739  0.71296038    -0.38700
O555        O  0.23849417  0.12971743  0.87081517    -0.39400
O556        O  0.23365805  0.05300712  0.86981740    -0.39400
C557        C  0.86740278  0.18652206  0.77827479    -0.11700
C558        C  0.89210574  0.15096612  0.79362432     0.05300
C559        C  0.89966893  0.15594803  0.82536256    -0.07000
C560        C  0.88441472  0.19686241  0.84066098    -0.07700
C561        C  0.86104639  0.23307999  0.82499002    -0.02300
C562        C  0.85253261  0.22748343  0.79336795     0.04500
N563        N  0.83134418  0.26424700  0.77582412     0.67000
H564        H  0.86124752  0.18351570  0.75393922     0.15900
H565        H  0.89059857  0.20022463  0.86498455     0.15600
N566        N  0.92410982  0.12065824  0.84222184     0.74700
O567        O  0.85070548  0.30421699  0.77460006    -0.38700
O568        O  0.79651687  0.25528134  0.75878113    -0.38700
O569        O  0.96653811  0.12693303  0.84977027    -0.39400
O570        O  0.90235753  0.08478213  0.85148790    -0.39400
C571        C  0.69464638  0.31734179  0.84074349    -0.11700
C572        C  0.73246486  0.34914762  0.84437869     0.05300
C573        C  0.72541841  0.39673253  0.83603424    -0.07000
C574        C  0.68291758  0.41041052  0.82243198    -0.07700
C575        C  0.64729565  0.37751397  0.81613804    -0.02300
C576        C  0.65263193  0.33096386  0.82628540     0.04500
N577        N  0.61723269  0.29637672  0.82006634     0.67000
H578        H  0.69881824  0.28089988  0.84740993     0.15900
H579        H  0.67925277  0.44627120  0.81441022     0.15600
N580        N  0.76259486  0.43057431  0.83804289     0.74700
O581        O  0.61306936  0.27921766  0.79356092    -0.38700
O582        O  0.59476281  0.27831827  0.84178427    -0.38700
O583        O  0.79487660  0.43016566  0.81842028    -0.39400
O584        O  0.75891368  0.46530350  0.85599742    -0.39400
C585        C  0.66567136  0.64846081  0.79838307    -0.11700
C586        C  0.61791855  0.64649047  0.79090605     0.05300
C587        C  0.58838096  0.68434384  0.79867633    -0.07000
C588        C  0.60707844  0.72383117  0.81362843    -0.07700
C589        C  0.65496545  0.72591419  0.82163182    -0.02300
C590        C  0.68431523  0.68702722  0.81446343     0.04500
N591        N  0.73220148  0.68482267  0.82481898     0.67000
H592        H  0.68802792  0.61855285  0.79328191     0.15900
H593        H  0.58417419  0.75346820  0.81826400     0.15600
N594        N  0.53961937  0.68375246  0.79064079     0.74700
O595        O  0.74210257  0.69418735  0.85228956    -0.38700
O596        O  0.76343173  0.66727994  0.80784490    -0.38700
O597        O  0.50894953  0.68261275  0.81126001    -0.39400
O598        O  0.52715321  0.68888180  0.76321072    -0.39400
C599        C  0.77792155  0.89690720  0.81409209    -0.11700
C600        C  0.77859632  0.85029655  0.82449072     0.05300
C601        C  0.81866138  0.82197704  0.81891302    -0.07000
C602        C  0.85576419  0.84003174  0.80157795    -0.07700
C603        C  0.85468547  0.88640882  0.79104538    -0.02300
C604        C  0.81554960  0.91515725  0.79749987     0.04500
N605        N  0.81259223  0.96219937  0.78607248     0.67000
H606        H  0.74710312  0.91862902  0.81769795     0.15900
H607        H  0.88674561  0.81865525  0.79770879     0.15600
N608        N  0.82309246  0.77591257  0.83193486     0.74700
O609        O  0.81304221  0.96927713  0.75769601    -0.38700
O610        O  0.80524702  0.99622340  0.80410223    -0.38700
O611        O  0.84374623  0.74346740  0.81744734    -0.39400
O612        O  0.81188661  0.76928568  0.85938505    -0.39400
C613        C  0.46971932  0.07736577  0.91582694    -0.11700
C614        C  0.44825653  0.03729942  0.92785600     0.05300
C615        C  0.40239065  0.02542245  0.91792472    -0.07000
C616        C  0.37853774  0.05542688  0.89759528    -0.07700
C617        C  0.40108049  0.09393102  0.88340587    -0.02300
C618        C  0.44786021  0.10442407  0.89314070     0.04500
N619        N  0.47592608  0.13925880  0.87853786     0.67000
H620        H  0.50563584  0.08561446  0.92241775     0.15900
H621        H  0.34251545  0.04675963  0.89195240     0.15600
N622        N  0.38046170  0.98191657  0.92664143     0.74700
O623        O  0.49327491  0.17261274  0.89414572    -0.38700
O624        O  0.49181981  0.13090465  0.85225953    -0.38700
O625        O  0.33658165  0.98016710  0.93070116    -0.39400
O626        O  0.40364768  0.94402395  0.92648024    -0.39400
C627        C  0.58033060  0.87231006  0.93336600    -0.11700
C628        C  0.57700134  0.92105004  0.92878807     0.05300
C629        C  0.60411779  0.94188084  0.90559820    -0.07000
C630        C  0.63345172  0.91391685  0.88751820    -0.07700
C631        C  0.63744551  0.86517065  0.89227422    -0.02300
C632        C  0.61090102  0.84441844  0.91591700     0.04500
N633        N  0.61527113  0.79543122  0.92300794     0.67000
H634        H  0.55928777  0.85580419  0.95082488     0.15900
H635        H  0.65267385  0.93053315  0.86923661     0.15600
N636        N  0.60226285  0.99147834  0.90007394     0.74700
O637        O  0.65506861  0.77830006  0.92925479    -0.38700
O638        O  0.57896675  0.77021714  0.92573477    -0.38700
O639        O  0.62623242  0.01928631  0.91648020    -0.39400
O640        O  0.58380165  0.00643114  0.87577966    -0.39400
C641        C  0.10510159  0.43635180  0.51512084    -0.11700
C642        C  0.07512665  0.41713627  0.49266162     0.16500
C643        C  0.07914549  0.36853163  0.48572569    -0.07000
C644        C  0.11374581  0.34127025  0.50030065    -0.07700
C645        C  0.14233438  0.35981244  0.52384099    -0.02300
C646        C  0.13750758  0.40831506  0.53116038     0.04500
N647        N  0.16278618  0.42929094  0.55604678     0.67000
H648        H  0.10229232  0.47340535  0.52097844     0.15900
H649        H  0.11660186  0.30436970  0.49414580     0.15600
N650        N  0.04613644  0.34539052  0.46585446     0.74700
O651        O  0.19044012  0.46320722  0.55124307    -0.38700
O652        O  0.15201197  0.41903096  0.58307166    -0.38700
O653        O  0.05990850  0.31366966  0.44765747    -0.39400
O654        O  0.00265789  0.35038509  0.47041911    -0.39400
C655        C  0.93398060  0.59417776  0.54355336    -0.11700
C656        C  0.88587636  0.59787755  0.53633011     0.05300
C657        C  0.86767475  0.56949873  0.51239978    -0.07000
C658        C  0.89746531  0.53890590  0.49628026    -0.07700
C659        C  0.94609091  0.53744505  0.50222718    -0.02300
C660        C  0.96405786  0.56484833  0.52668457     0.04500
N661        N  0.01305157  0.56454823  0.53411805     0.67000
H662        H  0.94859966  0.61473145  0.56225099     0.15900
H663        H  0.88264675  0.51742679  0.47812696     0.15600
N664        N  0.81969959  0.57342581  0.50285191     0.74700
O665        O  0.04173796  0.58659221  0.51763644    -0.38700
O666        O  0.02670568  0.54782748  0.55923200    -0.38700
O667        O  0.80634419  0.60968305  0.48877454    -0.39400
O668        O  0.79295599  0.53798510  0.50400679    -0.39400
C669        C  0.12671246  0.55607717  0.93445112    -0.11700
C670        C  0.07779193  0.55581002  0.92970143     0.05300
C671        C  0.05851969  0.58727134  0.90813191    -0.07000
C672        C  0.08793108  0.61860687  0.89257867    -0.07700
C673        C  0.13650244  0.62072997  0.89853382    -0.02300
C674        C  0.15588071  0.58882689  0.91986234     0.04500
N675        N  0.20465756  0.59050163  0.92803515     0.67000
H676        H  0.14222215  0.53177797  0.95056111     0.15900
H677        H  0.07241783  0.64184397  0.87582552     0.15600
N678        N  0.00897175  0.58896693  0.90235874     0.74700
O679        O  0.22177243  0.62741411  0.93988464    -0.38700
O680        O  0.22931101  0.55361223  0.92663158    -0.38700
O681        O  0.98113407  0.59926200  0.92368825    -0.39400
O682        O  0.99366360  0.58661394  0.87532045    -0.39400
C683        C  0.95657557  0.38217156  0.93131491    -0.11700
C684        C  0.95229194  0.43139717  0.93031153     0.05300
C685        C  0.91779143  0.45097905  0.91081815    -0.07000
C686        C  0.88803998  0.42117033  0.89367081    -0.07700
C687        C  0.89056000  0.37176145  0.89591974    -0.02300
C688        C  0.92552280  0.35233825  0.91523374     0.04500
N689        N  0.92915311  0.30255044  0.91967349     0.67000
H690        H  0.98428588  0.36652444  0.94482895     0.15900
H691        H  0.86247460  0.43699768  0.87847725     0.15600
N692        N  0.91230759  0.50100996  0.90819199     0.74700
O693        O  0.96821293  0.28215515  0.91629253    -0.38700
O694        O  0.89489451  0.27998784  0.93048717    -0.38700
O695        O  0.90649218  0.51933391  0.88230465    -0.39400
O696        O  0.90800288  0.52627562  0.93180173    -0.39400
C697        C  0.55408198  0.09564428  0.50495301    -0.11700
C698        C  0.56586525  0.04886459  0.49842789     0.05300
C699        C  0.60312557  0.02790700  0.51452247    -0.07000
C700        C  0.62759062  0.05359038  0.53685404    -0.07700
C701        C  0.61719698  0.10127854  0.54307217    -0.02300
C702        C  0.58041988  0.12259609  0.52587303     0.04500
N703        N  0.57045598  0.17182323  0.52802903     0.67000
H704        H  0.52404957  0.11154521  0.49374716     0.15900
H705        H  0.65388454  0.03505187  0.55004923     0.15600
N706        N  0.61485399  0.97952422  0.50958615     0.74700
O707        O  0.59936765  0.20088460  0.51721485    -0.38700
O708        O  0.52935471  0.18536236  0.53436263    -0.38700
O709        O  0.65132322  0.96920662  0.49474835    -0.39400
O710        O  0.59465040  0.94810991  0.52495121    -0.39400
C711        C  0.47077259  0.90370870  0.52416800    -0.11700
C712        C  0.44728930  0.92479214  0.49947847     0.05300
C713        C  0.39804983  0.91858676  0.49663677    -0.07000
C714        C  0.37413083  0.89106204  0.51819868    -0.07700
C715        C  0.39764963  0.87180677  0.54350333    -0.02300
C716        C  0.44648574  0.87902522  0.54656362     0.04500
N717        N  0.47132535  0.86492184  0.57346148     0.67000
H718        H  0.50833047  0.90859224  0.52696243     0.15900
H719        H  0.33653415  0.88593831  0.51575325     0.15600
N720        N  0.37143908  0.94155922  0.47318959     0.74700
O721        O  0.50708043  0.83886239  0.57126490    -0.38700
O722        O  0.46223011  0.88457233  0.59865523    -0.38700
O723        O  0.33794783  0.92015305  0.46008671    -0.39400
O724        O  0.37767549  0.98478738  0.46798705    -0.39400
C725        C  0.39891338  0.03390564  0.99603715    -0.11700
C726        C  0.44779666  0.03961956  0.99693955     0.05300
C727        C  0.46686453  0.07552147  0.01564059    -0.07000
C728        C  0.43701485  0.10511804  0.03234569    -0.07700
C729        C  0.38770310  0.10126574  0.03015357    -0.02300
C730        C  0.36868948  0.06483141  0.01150750     0.04500
N731        N  0.31906783  0.06006937  0.00694741     0.67000
H732        H  0.38364020  0.00485429  0.98266005     0.15900
H733        H  0.45291782  0.13177082  0.04713521     0.15600
N734        N  0.51653081  0.08284608  0.01737414     0.74700
O735        O  0.29627443  0.09262746  0.99420179    -0.38700
O736        O  0.29919603  0.02108020  0.01187379    -0.38700
O737        O  0.53733089  0.10400994  0.99613713    -0.39400
O738        O  0.53856592  0.07331709  0.04160139    -0.39400
C739        C  0.43028532  0.29938287  0.10917148    -0.11700
C740        C  0.40365824  0.34098557  0.10926216     0.05300
C741        C  0.36108102  0.34215129  0.09279954    -0.07000
C742        C  0.34392791  0.30079452  0.07877336    -0.07700
C743        C  0.36908500  0.25827466  0.08067885    -0.02300
C744        C  0.41335447  0.25809197  0.09543894     0.04500
N745        N  0.43966012  0.21542322  0.09910515     0.67000
H746        H  0.46330158  0.29808364  0.12160725     0.15900
H747        H  0.31000171  0.30138806  0.06742493     0.15600
N748        N  0.33353065  0.38406993  0.09173837     0.74700
O749        O  0.48249099  0.21415268  0.09178454    -0.38700
O750        O  0.42198991  0.18114015  0.11321862    -0.38700
O751        O  0.33217906  0.40777320  0.06752526    -0.39400
O752        O  0.30425787  0.39241512  0.11259611    -0.39400
C753        C  0.08312982  0.37790064  0.37883137    -0.11700
C754        C  0.13199978  0.38032161  0.38311650     0.05300
C755        C  0.15002147  0.40821691  0.40727115    -0.07000
C756        C  0.11904750  0.43163476  0.42707966    -0.07700
C757        C  0.07005580  0.42739560  0.42359741    -0.02300
C758        C  0.05207919  0.40085553  0.39863434     0.04500
N759        N  0.00250483  0.39638457  0.39307018     0.67000
H760        H  0.06881951  0.35735815  0.36002446     0.15900
H761        H  0.13337991  0.45303084  0.44546963     0.15600
N762        N  0.19950641  0.41200342  0.41258514     0.74700
O763        O  0.98635375  0.40199935  0.36648281    -0.38700
O764        O  0.97577960  0.38089381  0.41354888    -0.38700
O765        O  0.21916835  0.45185212  0.41180627    -0.39400
O766        O  0.22202837  0.37700288  0.42251459    -0.39400
C767        C  0.27434837  0.35141645  0.27731859    -0.11700
C768        C  0.26661575  0.36721315  0.30745250     0.05300
C769        C  0.30057627  0.39710164  0.32107417    -0.07000
C770        C  0.34203844  0.40750419  0.30542804    -0.07700
C771        C  0.35163367  0.38771194  0.27659491    -0.02300
C772        C  0.31670280  0.35994847  0.26231043     0.04500
N773        N  0.32383324  0.33860556  0.23312961     0.67000
H774        H  0.24798056  0.33046990  0.26553033     0.15900
H775        H  0.36793004  0.42962494  0.31676842     0.15600
N776        N  0.29514352  0.41520865  0.35133564     0.74700
O777        O  0.33599545  0.29590659  0.23157201    -0.38700
O778        O  0.30884989  0.35889178  0.20950123    -0.38700
O779        O  0.30305282  0.38889308  0.37384015    -0.39400
O780        O  0.29074240  0.45902171  0.35551185    -0.39400
C781        C  0.56534536  0.09542165  0.43043979    -0.11700
C782        C  0.57123788  0.04638820  0.42936698     0.05300
C783        C  0.60755585  0.02787711  0.41108694    -0.07000
C784        C  0.63762281  0.05834715  0.39519088    -0.07700
C785        C  0.63346278  0.10777848  0.39757892    -0.02300
C786        C  0.59670488  0.12616218  0.41590506     0.04500
N787        N  0.59172116  0.17576570  0.42118171     0.67000
H788        H  0.53625282  0.11023092  0.44310868     0.15900
H789        H  0.66437970  0.04292862  0.38072571     0.15600
N790        N  0.61455482  0.97816007  0.40852981     0.74700
O791        O  0.55208092  0.19513749  0.41800368    -0.38700
O792        O  0.62545134  0.19912507  0.43245233    -0.38700
O793        O  0.60535766  0.95728412  0.38370390    -0.39400
O794        O  0.63681675  0.95670577  0.42912767    -0.39400
C795        C  0.66654054  0.32753585  0.30811461    -0.11700
C796        C  0.62432718  0.32178723  0.29194722     0.05300
C797        C  0.59930576  0.27901462  0.29457769    -0.07000
C798        C  0.61733109  0.24264702  0.31259917    -0.07700
C799        C  0.65979379  0.24794217  0.32876752    -0.02300
C800        C  0.68451491  0.29127324  0.32652701     0.04500
N801        N  0.72753101  0.29931007  0.34295582     0.67000
H802        H  0.68582345  0.36033931  0.30626444     0.15900
H803        H  0.59806359  0.20975397  0.31367939     0.15600
N804        N  0.55489794  0.27231380  0.27965765     0.74700
O805        O  0.76228936  0.31759288  0.32970608    -0.38700
O806        O  0.72941778  0.29250803  0.37134044    -0.38700
O807        O  0.54939046  0.23875181  0.26093881    -0.39400
O808        O  0.51971036  0.29603423  0.28806234    -0.39400
C809        C  0.13929356  0.56288707  0.03990339    -0.11700
C810        C  0.14031513  0.61185614  0.03546208     0.05300
C811        C  0.11222075  0.63106034  0.01189695    -0.07000
C812        C  0.08234562  0.60159269  0.99461811    -0.07700
C813        C  0.08208379  0.55251546  0.99876219    -0.02300
C814        C  0.11156851  0.53323160  0.02152605     0.04500
N815        N  0.11428510  0.48341922  0.02603892     0.67000
H816        H  0.16018906  0.54729516  0.05792016     0.15900
H817        H  0.05989892  0.61709924  0.97737814     0.15600
N818        N  0.11519139  0.67990997  0.00427639     0.74700
O819        O  0.13185458  0.45738301  0.00564023    -0.38700
O820        O  0.10470165  0.46625599  0.05173757    -0.38700
O821        O  0.15380770  0.69690442  0.99551095    -0.39400
O822        O  0.07827362  0.70432866  0.00221948    -0.39400
C823        C  0.28894075  0.58582149  0.10849948    -0.11700
C824        C  0.28294956  0.63405873  0.10297456     0.05300
C825        C  0.31852706  0.66601436  0.11276573    -0.07000
C826        C  0.35769709  0.64934510  0.12891778    -0.07700
C827        C  0.36343895  0.60120446  0.13415602    -0.02300
C828        C  0.32876040  0.56928556  0.12386327     0.04500
N829        N  0.33271225  0.52004616  0.12989581     0.67000
H830        H  0.26171587  0.56092088  0.10198012     0.15900
H831        H  0.38501844  0.67383119  0.13595156     0.15600
N832        N  0.31635964  0.71511232  0.10544578     0.74700
O833        O  0.32849049  0.50509244  0.15677136    -0.38700
O834        O  0.33630513  0.49116573  0.10806170    -0.38700
O835        O  0.32420001  0.74585578  0.12579751    -0.39400
O836        O  0.31104235  0.72772190  0.07810786    -0.39400
C837        C  0.20788307  0.12915793  0.14855083    -0.11700
C838        C  0.17307273  0.10096231  0.13485797     0.05300
C839        C  0.17661992  0.09030434  0.10342655    -0.07000
C840        C  0.21516782  0.10696595  0.08667579    -0.07700
C841        C  0.25079157  0.13399100  0.10068825    -0.02300
C842        C  0.24668953  0.14516381  0.13207522     0.04500
N843        N  0.28293349  0.17033479  0.14809681     0.67000
H844        H  0.20593106  0.13744402  0.17267356     0.15900
H845        H  0.21757695  0.09822676  0.06263957     0.15600
N846        N  0.14300107  0.06046536  0.08854051     0.74700
O847        O  0.27312265  0.20764637  0.16253635    -0.38700
O848        O  0.32305232  0.15202217  0.15127511    -0.38700
O849        O  0.11402322  0.07784409  0.06988340    -0.39400
O850        O  0.14721966  0.01630747  0.09022775    -0.39400
C851        C  0.09781599  0.17648143  0.30907508    -0.11700
C852        C  0.13135729  0.14280519  0.30050925     0.05300
C853        C  0.17935280  0.15337860  0.30382288    -0.07000
C854        C  0.19302954  0.19695605  0.31615835    -0.07700
C855        C  0.15951042  0.23154651  0.32396995    -0.02300
C856        C  0.11123740  0.22096931  0.31985512     0.04500
N857        N  0.07546760  0.25575343  0.32442480     0.67000
H858        H  0.06070129  0.16906974  0.30595761     0.15900
H859        H  0.23019389  0.20372482  0.31948638     0.15600
N860        N  0.21452272  0.11984558  0.29550802     0.74700
O861        O  0.07463418  0.29213106  0.30805267    -0.38700
O862        O  0.04127428  0.24718551  0.34175837    -0.38700
O863        O  0.23735254  0.12515976  0.27118460    -0.39400
O864        O  0.22702197  0.08874270  0.31427578    -0.39400
C865        C  0.79266484  0.08627691  0.33662496    -0.11700
C866        C  0.79001050  0.13326207  0.34672480     0.05300
C867        C  0.82989716  0.16279254  0.34322265    -0.07000
C868        C  0.86956184  0.14585204  0.32750911    -0.07700
C869        C  0.87076856  0.09970365  0.31607745    -0.02300
C870        C  0.83260761  0.06927964  0.32168273     0.04500
N871        N  0.83310515  0.02152551  0.31100114     0.67000
H872        H  0.76259474  0.06311687  0.33892913     0.15900
H873        H  0.89904610  0.16916242  0.32347371     0.15600
N874        N  0.83039627  0.20999359  0.35515701     0.74700
O875        O  0.85962178  0.99179985  0.32364806    -0.38700
O876        O  0.80381774  0.00800630  0.29105777    -0.38700
O877        O  0.81691346  0.21804758  0.38206604    -0.39400
O878        O  0.84833948  0.24296832  0.33993913    -0.39400
C879        C  0.18504732  0.78690400  0.11532717    -0.11700
C880        C  0.15340810  0.74977106  0.10911758     0.05300
C881        C  0.10621509  0.75429829  0.11857400    -0.07000
C882        C  0.09200401  0.79512854  0.13414319    -0.07700
C883        C  0.12447023  0.83066225  0.14160361    -0.02300
C884        C  0.17115573  0.82670234  0.13180105     0.04500
N885        N  0.20432855  0.86368186  0.13732561     0.67000
H886        H  0.22109532  0.78484996  0.10753626     0.15900
H887        H  0.05584564  0.79824305  0.14158064     0.15600
N888        N  0.07315394  0.71679497  0.11440395     0.74700
O889        O  0.23541780  0.85895690  0.15769833    -0.38700
O890        O  0.20680379  0.89772920  0.11906594    -0.38700
O891        O  0.07647763  0.68021579  0.13044652    -0.39400
O892        O  0.03690701  0.72309007  0.09822699    -0.39400
C893        C  0.89340883  0.41785871  0.03409549    -0.11700
C894        C  0.90661774  0.37059997  0.03962906     0.05300
C895        C  0.94737581  0.35352613  0.02434894    -0.07000
C896        C  0.97374259  0.38365661  0.00572967    -0.07700
C897        C  0.95867598  0.42945239  0.99938190    -0.02300
C898        C  0.91810031  0.44650754  0.01376416     0.04500
N899        N  0.90200301  0.49340119  0.00840953     0.67000
H900        H  0.86425202  0.43380229  0.04602534     0.15900
H901        H  0.00589778  0.37070398  0.99552893     0.15600
N902        N  0.96158374  0.30533205  0.02592147     0.74700
O903        O  0.86582076  0.49991290  0.99222189    -0.38700
O904        O  0.91887742  0.52718176  0.02381002    -0.38700
O905        O  0.93596768  0.27389183  0.01393309    -0.39400
O906        O  0.00304871  0.29526279  0.03395126    -0.39400
C907        C  0.92657028  0.15883880  0.11495413    -0.11700
C908        C  0.91877554  0.15339891  0.14632956     0.05300
C909        C  0.89688926  0.19006095  0.16266294    -0.07000
C910        C  0.88282153  0.23102271  0.14734905    -0.07700
C911        C  0.88997725  0.23604977  0.11573794    -0.02300
C912        C  0.91203240  0.19921579  0.09953422     0.04500
N913        N  0.91729658  0.20077169  0.06712545     0.67000
H914        H  0.94254939  0.13065779  0.10185561     0.15900
H915        H  0.86626966  0.25913148  0.16023453     0.15600
N916        N  0.89054151  0.18707549  0.19488344     0.74700
O917        O  0.95702384  0.19307777  0.05542616    -0.38700
O918        O  0.88125403  0.20149179  0.05021986    -0.38700
O919        O  0.92325483  0.19975790  0.21268797    -0.39400
O920        O  0.85055047  0.17751962  0.20551175    -0.39400
C921        C  0.71723747  0.33214911  0.08626077    -0.11700
C922        C  0.75908599  0.34686263  0.10040675     0.05300
C923        C  0.75729686  0.37340686  0.12766633    -0.07000
C924        C  0.71383111  0.38426871  0.14069330    -0.07700
C925        C  0.67201789  0.36952471  0.12662080    -0.02300
C926        C  0.67368128  0.34356952  0.09916948     0.04500
N927        N  0.63131879  0.32833684  0.08443403     0.67000
H928        H  0.71847186  0.31089646  0.06565829     0.15900
H929        H  0.71264173  0.40551150  0.16131274     0.15600
N930        N  0.79957343  0.38957189  0.14219050     0.74700
O931        O  0.61714819  0.34874632  0.06064558    -0.38700
O932        O  0.60630249  0.29678228  0.09638075    -0.38700
O933        O  0.82600292  0.41854190  0.12886731    -0.39400
O934        O  0.81106250  0.37416839  0.16808859    -0.39400
C935        C  0.42145995  0.83722328  0.41869160    -0.11700
C936        C  0.39118670  0.85420004  0.39575600     0.05300
C937        C  0.39183192  0.90313932  0.38944879    -0.07000
C938        C  0.42091521  0.93347576  0.40653237    -0.07700
C939        C  0.45092568  0.91650256  0.42943121    -0.02300
C940        C  0.45196710  0.86748361  0.43501318     0.04500
N941        N  0.48478527  0.84767935  0.45630136     0.67000
H942        H  0.42197339  0.79990302  0.42366685     0.15900
H943        H  0.42026482  0.97087506  0.40172897     0.15600
N944        N  0.36471952  0.92262374  0.36501154     0.74700
O945        O  0.47217058  0.81481936  0.47370231    -0.38700
O946        O  0.52756080  0.85950761  0.45556793    -0.38700
O947        O  0.33761325  0.95696719  0.37002966    -0.39400
O948        O  0.37226466  0.90958946  0.33790550    -0.39400
C949        C  0.20588157  0.84199388  0.35592170    -0.11700
C950        C  0.24081206  0.81973737  0.33842359     0.05300
C951        C  0.23380926  0.81523609  0.30654200    -0.07000
C952        C  0.19316382  0.83311724  0.29301883    -0.07700
C953        C  0.15955398  0.85767980  0.31005692    -0.02300
C954        C  0.16553989  0.86121542  0.34202503     0.04500
N955        N  0.13292185  0.88672102  0.36044863     0.67000
H956        H  0.21057951  0.84567776  0.38035539     0.15900
H957        H  0.18940656  0.83041330  0.26844843     0.15600
N958        N  0.26948747  0.79646077  0.28703895     0.74700
O959        O  0.10599593  0.86476499  0.37817567    -0.38700
O960        O  0.13579300  0.93101679  0.36234294    -0.38700
O961        O  0.25989166  0.76279345  0.26908705    -0.39400
O962        O  0.30796030  0.81817642  0.28429643    -0.39400
C963        C  0.40654526  0.62859268  0.32925433    -0.11700
C964        C  0.40587124  0.63142913  0.29719749     0.05300
C965        C  0.38633343  0.67187334  0.28349061    -0.07000
C966        C  0.36908068  0.70846014  0.30160144    -0.07700
C967        C  0.36973677  0.70586173  0.33347855    -0.02300
C968        C  0.38846637  0.66542057  0.34742931     0.04500
N969        N  0.38829028  0.66085223  0.37984359     0.67000
H970        H  0.42156031  0.59805566  0.34029045     0.15900
H971        H  0.35481242  0.73930579  0.29054972     0.15600
N972        N  0.38321962  0.67629493  0.25108277     0.74700
O973        O  0.35035139  0.65191540  0.39342526    -0.38700
O974        O  0.42660375  0.66039349  0.39446932    -0.38700
O975        O  0.34909094  0.65782379  0.23688894    -0.39400
O976        O  0.40971994  0.70491715  0.23752100    -0.39400
C977        C  0.65755579  0.89536394  0.01104577    -0.11700
C978        C  0.64023949  0.86103025  0.03121217     0.05300
C979        C  0.59063934  0.85720268  0.03432596    -0.07000
C980        C  0.56057479  0.88634593  0.01723987    -0.07700
C981        C  0.57815082  0.92103048  0.99773584    -0.02300
C982        C  0.62743317  0.92615981  0.99521373     0.04500
N983        N  0.64749111  0.96367709  0.97779974     0.67000
H984        H  0.69511405  0.89919912  0.00802319     0.15900
H985        H  0.52287315  0.88235997  0.01962200     0.15600
N986        N  0.56978729  0.82562819  0.05564632     0.74700
O987        O  0.63202680  0.00510153  0.98085257    -0.38700
O988        O  0.68454296  0.95684781  0.96267856    -0.38700
O989        O  0.57709143  0.83123311  0.08384742    -0.39400
O990        O  0.53940149  0.79610906  0.04666666    -0.39400
C991        C  0.65486460  0.67788928  0.07301183    -0.11700
C992        C  0.68183206  0.71173758  0.08903601     0.05300
C993        C  0.69252047  0.70303375  0.12016896    -0.07000
C994        C  0.67596391  0.66242341  0.13428808    -0.07700
C995        C  0.64645420  0.63052021  0.11903611    -0.02300
C996        C  0.63693620  0.63770516  0.08775194     0.04500
N997        N  0.60675303  0.60639682  0.07114769     0.67000
H998        H  0.64649145  0.68324955  0.04916843     0.15900
H999        H  0.68380033  0.65757976  0.15827476     0.15600
N1000       N  0.71570994  0.73732298  0.13899641     0.74700
O1001       O  0.56313485  0.61431018  0.07004448    -0.38700
O1002       O  0.62425959  0.57487808  0.05426942    -0.38700
O1003       O  0.69326624  0.77319249  0.14779234    -0.39400
O1004       O  0.75411230  0.72705597  0.15188131    -0.39400
C1005       C  0.86981434  0.87513640  0.09865766    -0.11700
C1006       C  0.86538040  0.87715323  0.13064974     0.05300
C1007       C  0.82246513  0.86260237  0.14376385    -0.07000
C1008       C  0.78508865  0.84831561  0.12509928    -0.07700
C1009       C  0.78941147  0.84612350  0.09335113    -0.02300
C1010       C  0.83222232  0.85969237  0.08000018     0.04500
N1011       N  0.83810202  0.85758561  0.04769336     0.67000
H1012       H  0.90211977  0.88639131  0.08796859     0.15900
H1013       H  0.75256406  0.83744711  0.13563974     0.15600
N1014       N  0.81657012  0.86058859  0.17611373     0.74700
O1015       O  0.82112394  0.88966196  0.03120627    -0.38700
O1016       O  0.86543034  0.82747307  0.03612111    -0.38700
O1017       O  0.78454105  0.88432864  0.18875192    -0.39400
O1018       O  0.83863891  0.83010300  0.19132041    -0.39400
C1019       C  0.94819869  0.59505863  0.43844898    -0.11700
C1020       C  0.94376416  0.54626507  0.43382470     0.05300
C1021       C  0.91050208  0.52949144  0.41240080    -0.07000
C1022       C  0.88399778  0.56151488  0.39532018    -0.07700
C1023       C  0.88757547  0.61063322  0.39987393    -0.02300
C1024       C  0.92001373  0.62724381  0.42226537     0.04500
N1025       N  0.92421903  0.67629356  0.42952587     0.67000
H1026       H  0.97353166  0.60823275  0.45498585     0.15900
H1027       H  0.86037956  0.54737074  0.37815988     0.15600
N1028       N  0.90259995  0.47993043  0.40809263     0.74700
O1029       O  0.88939427  0.69840079  0.44009761    -0.38700
O1030       O  0.96408075  0.69589534  0.42924670    -0.38700
O1031       O  0.89440880  0.45410098  0.43076528    -0.39400
O1032       O  0.89762292  0.46310363  0.38154833    -0.39400
C1033       C  0.71664319  0.65791378  0.31470214    -0.11700
C1034       C  0.75043496  0.62767078  0.32781812     0.05300
C1035       C  0.74470811  0.57843056  0.32358204    -0.07000
C1036       C  0.70645954  0.56110525  0.30664952    -0.07700
C1037       C  0.67442356  0.59152902  0.29246306    -0.02300
C1038       C  0.67964031  0.64040057  0.29666945     0.04500
N1039       N  0.64695000  0.67267969  0.28352023     0.67000
H1040       H  0.71898342  0.69565238  0.31823593     0.15900
H1041       H  0.70302056  0.52335408  0.30345652     0.15600
N1042       N  0.77869098  0.54541008  0.33449971     0.74700
O1043       O  0.60990325  0.68330204  0.29767623    -0.38700
O1044       O  0.65804256  0.69523501  0.25993850    -0.38700
O1045       O  0.76631967  0.51344103  0.35264499    -0.39400
O1046       O  0.81883479  0.54362277  0.32244213    -0.39400
C1047       C  0.91917297  0.75777840  0.32340035    -0.11700
C1048       C  0.87161654  0.75412016  0.33137464     0.05300
C1049       C  0.84063050  0.79132962  0.32348476    -0.07000
C1050       C  0.85684786  0.82903890  0.30594339    -0.07700
C1051       C  0.90416124  0.83219496  0.29780507    -0.02300
C1052       C  0.93569473  0.79671355  0.30718655     0.04500
N1053       N  0.98435877  0.79886171  0.29934189     0.67000
H1054       H  0.94341603  0.72961683  0.32882660     0.15900
H1055       H  0.83294293  0.85733101  0.30010908     0.15600
N1056       N  0.79318064  0.79231570  0.33429640     0.74700
O1057       O  0.01476392  0.80690045  0.31978786    -0.38700
O1058       O  0.99735150  0.78606813  0.27309966    -0.38700
O1059       O  0.78526576  0.79096149  0.36256750    -0.39400
O1060       O  0.75968108  0.80011709  0.31603478    -0.39400
loop_ 
_geom_bond_atom_site_label_1 
_geom_bond_atom_site_label_2 
_geom_bond_distance 
_geom_bond_site_symmetry_2 
_ccdc_geom_bond_type 
C1            C2   1.408       .  A
C1            C6   1.399       .  A
C1         C1034   1.500       .  S
C2            C3   1.415       .  A
C2            H7   1.081       .  S
C3            C4   1.415       .  A
C3         C1023   1.509       .  S
C4            C5   1.411       .  A
C4            H8   1.080       .  S
C5            C6   1.399       .  A
C5         C1048   1.491       .  S
C6            H9   1.083       .  S
C10          C11   1.404       .  A
C10          C15   1.398       .  A
C10        C1009   1.485       .  S
C11          C12   1.417       .  A
C11          H16   1.083       .  S
C12          C13   1.419       .  A
C12         C978   1.514       .  S
C13          C14   1.413       .  A
C13          H17   1.079       .  S
C14          C15   1.402       .  A
C14         C992   1.504       .  S
C15          H18   1.083       .  S
C19          C20   1.407       .  A
C19          C24   1.398       .  A
C19         C967   1.484       .  S
C20          C21   1.415       .  A
C20          H25   1.083       .  S
C21          C22   1.414       .  A
C21         C936   1.503       .  S
C22          C23   1.407       .  A
C22          H26   1.082       .  S
C23          C24   1.400       .  A
C23         C950   1.492       .  S
C24          H27   1.084       .  S
C28          C29   1.394       .  A
C28          C33   1.412       .  A
C28         C911   1.488       .  S
C29          C30   1.391       .  A
C29          H34   1.085       .  S
C30          C31   1.401       .  A
C30         C922   1.472       .  S
C31          C32   1.418       .  A
C31          H35   1.081       .  S
C32          C33   1.420       .  A
C32         C894   1.519       .  S
C33          H36   1.079       .  S
C37          C74   1.468       .  S
C37         C953   1.484       .  S
C37          N55   1.348       .  A
N38          N55   1.319       .  A
N38          N60   1.316       .  A
N38         Co75   2.066       .  S
C39          C77   1.456       .  S
C39          H84   1.082       .  S
C39          N64   1.336       .  A
H40          C81   1.081       .  S
C41          C45   1.470       .  S
C41          H70   1.081       .  S
C41          N65   1.347       .  A
Co42         N60   2.087       .  S
Co42         N50   2.061   1_455  S
Co42         N82   2.060   1_565  S
Co42         N58   2.095   1_465  S
Co42        Cl86   2.458       .  S
N43          C81   1.347       .  A
N43          N50   1.324       .  A
N43         Co44   2.122       .  S
Co44         N47   2.071       .  S
Co44         N64   2.063   1_565  S
Co44         N51   2.123   1_565  S
Co44        Cl86   2.443   1_655  S
C45        C1006   1.491       .  S
C45          N83   1.349       .  A
N46          N53   1.324       .  A
N46          N76   1.320       .  A
N46         Co79   2.060       .  S
N47          N65   1.316       .  A
N47          N83   1.321       .  A
N48          C77   1.354       .  A
N48          N58   1.329       .  A
H49          C74   1.081       .  S
N50          N71   1.320       .  A
N51          N69   1.322       .  A
N51          N56   1.331       .  A
C52          C80   1.449       .  S
C52         C908   1.479       .  S
C52          N56   1.359       .  A
N53          C68   1.344       .  A
N53         Co75   2.111       .  S
C54          C57   1.449       .  S
C54          H88   1.082       .  S
C54          N82   1.331       .  A
C57         C852   1.472       .  S
C57          N78   1.356       .  A
N58          N64   1.316       .  A
N59          C85   1.337       .  A
N59          N61   1.317       .  A
N59         Co75   2.065   1_545  S
N60          C74   1.346       .  A
N61          N89   1.329       .  A
N61         Co79   2.096   1_545  S
H62          C85   1.082       .  S
H63          C80   1.081       .  S
N65         Co79   2.091   1_655  S
N66          N78   1.329       .  A
N66          N82   1.323       .  A
N66         Co75   2.115   1_545  S
C67          C81   1.469       .  S
C67        C1051   1.473       .  S
C67          N71   1.342       .  A
C68          C87   1.465       .  S
C68          H72   1.081       .  S
N69          C80   1.330       .  A
N69         Co79   2.057   1_645  S
C73          C85   1.458       .  S
C73         C838   1.486       .  S
C73          N89   1.354       .  A
Co75        Cl86   2.442       .  S
N76          C87   1.342       .  A
C77         C869   1.477       .  S
Co79        Cl86   2.457       .  S
C87         C883   1.466       .  S
C90          C91   1.407       .  A
C90          C95   1.395       .  A
C90         C824   1.488       .  S
C91          C92   1.412       .  A
C91          H96   1.083       .  S
C92          C93   1.411       .  A
C92         C810   1.497       .  S
C93          C94   1.408       .  A
C93          H97   1.081       .  S
C94          C95   1.397       .  A
C94         C880   1.487       .  S
C95          H98   1.083       .  S
C99         C100   1.404       .  A
C99         C104   1.410       .  A
C99         C866   1.493       .  S
C100        C101   1.403       .  A
C100        H105   1.083       .  S
C101        C102   1.410       .  A
C101        C799   1.496       .  S
C102        C103   1.413       .  A
C102        H106   1.081       .  S
C103        C104   1.412       .  A
C103        C785   1.509       .  S
C104        H107   1.083       .  S
C108        C109   1.410       .  A
C108        C113   1.406       .  A
C108        C754   1.489       .  S
C109        C110   1.412       .  A
C109        H114   1.081       .  S
C110        C111   1.404       .  A
C110        C768   1.496       .  S
C111        C112   1.396       .  A
C111        H115   1.081       .  S
C112        C113   1.403       .  A
C112        C855   1.491       .  S
C113        H116   1.083       .  S
C117        C118   1.410       .  A
C117        C122   1.413       .  A
C117        C729   1.501       .  S
C118        C119   1.403       .  A
C118        H123   1.083       .  S
C119        C120   1.399       .  A
C119        C743   1.484       .  S
C120        C121   1.404       .  A
C120        H124   1.083       .  S
C121        C122   1.411       .  A
C121        C841   1.493       .  S
C122        H125   1.083       .  S
C126        C163   1.452       .  S
C126       C1037   1.479       .  S
C126        N144   1.357       .  A
N127        N144   1.329       .  A
N127        N149   1.323       .  A
N127       Co164   2.119       .  S
C128        C166   1.473       .  S
C128        H173   1.079       .  S
C128        N153   1.343       .  A
H129        C170   1.082       .  S
C130        C134   1.449       .  S
C130        H159   1.082       .  S
C130        N154   1.335       .  A
Co131       N149   2.065       .  S
Co131       N139   2.096       .  S
Co131       N171   2.094       .  S
Co131       N147   2.064       .  S
Co131      Cl175   2.462       .  S
N132        C170   1.337       .  A
N132        N139   1.317       .  A
N132       Co133   2.066       .  S
Co133       N136   2.112       .  S
Co133       N153   2.103       .  S
Co133       N140   2.065       .  S
Co133      Cl175   2.433       .  S
C134        C925   1.465       .  S
C134        N172   1.353       .  A
N135        N142   1.318       .  A
N135        N165   1.330       .  A
N135       Co168   2.098       .  S
N136        N154   1.324       .  A
N136        N172   1.328       .  A
N137        C166   1.346       .  A
N137        N147   1.319       .  A
H138        C163   1.082       .  S
N139        N160   1.329       .  A
N140        N158   1.316       .  A
N140        N145   1.319       .  A
C141        C169   1.469       .  S
C141        C740   1.480       .  S
C141        N145   1.346       .  A
N142        C157   1.335       .  A
N142       Co164   2.069       .  S
C143        C146   1.469       .  S
C143        H177   1.081       .  S
C143        N171   1.347       .  A
C146        C964   1.486       .  S
C146        N167   1.347       .  A
N147        N153   1.320       .  A
N148        C174   1.345       .  A
N148        N150   1.324       .  A
N148       Co164   2.110       .  S
N149        C163   1.334       .  A
N150        N178   1.320       .  A
N150       Co168   2.066       .  S
H151        C174   1.081       .  S
H152        C169   1.081       .  S
N154       Co168   2.070       .  S
N155        N167   1.320       .  A
N155        N171   1.316       .  A
N155       Co164   2.064       .  S
C156        C170   1.456       .  S
C156        C796   1.481       .  S
C156        N160   1.354       .  A
C157        C176   1.459       .  S
C157        H161   1.082       .  S
N158        C169   1.349       .  A
N158       Co168   2.094       .  S
C162        C174   1.463       .  S
C162        C827   1.470       .  S
C162        N178   1.344       .  A
Co164      Cl175   2.438       .  S
N165        C176   1.355       .  A
C166        C771   1.485       .  S
Co168      Cl175   2.469       .  S
C176        C995   1.488       .  S
C179        C180   1.422       .  A
C179        C184   1.402       .  A
C179        C712   1.495       .  S
C180        C181   1.417       .  A
C180        C939   1.496       .  S
C181        C182   1.414   1_565  A
C181        H186   1.084       .  S
C182        C183   1.416       .  A
C182        C782   1.500       .  S
C183        C184   1.396   1_545  A
C183        C698   1.482       .  S
C184        H185   1.086       .  S
C187        C188   1.418       .  A
C187        C192   1.402   1_655  A
C187        C897   1.488       .  S
C188        C189   1.411   1_655  A
C188        C684   1.499       .  S
C189        C190   1.414       .  A
C189        H194   1.084       .  S
C190        C191   1.423       .  A
C190        C670   1.500       .  S
C191        C192   1.406       .  A
C191        C813   1.499       .  S
C192        H193   1.084   1_556  S
C195        C196   1.418       .  A
C195        C200   1.403   1_655  A
C195       C1020   1.494       .  S
C196        C197   1.414   1_655  A
C196        C659   1.501       .  S
C197        C198   1.415       .  A
C197        H202   1.083       .  S
C198        C199   1.422       .  A
C198        C642   1.505       .  S
C199        C200   1.405       .  A
C199        C757   1.493       .  S
C200        H201   1.085       .  S
C203        C204   1.419       .  A
C203        C208   1.411       .  A
C203        C981   1.501       .  S
C204        C205   1.405       .  A
C204        C628   1.489       .  S
C205        C206   1.401   1_565  A
C205        H210   1.085       .  S
C206        C207   1.417       .  A
C206        C614   1.492       .  S
C207        C208   1.413   1_545  A
C207        C726   1.491       .  S
C208        H209   1.085   1_556  S
C211        C212   1.400       .  A
C211        C216   1.405       .  A
C211        C589   1.487       .  S
C212        C213   1.399       .  A
C212        H217   1.084       .  S
C213        C214   1.404       .  A
C213        C600   1.482       .  S
C214        C215   1.409       .  A
C214        H218   1.083       .  S
C215        C216   1.407       .  A
C215        C631   1.492       .  S
C216        H219   1.082       .  S
C220        C221   1.409       .  A
C220        C225   1.404       .  A
C220        C572   1.499       .  S
C221        C222   1.413       .  A
C221        H226   1.082       .  S
C222        C223   1.413       .  A
C222        C687   1.505       .  S
C223        C224   1.407       .  A
C223        H227   1.082       .  S
C224        C225   1.403       .  A
C224        C561   1.493       .  S
C225        H228   1.083       .  S
C229        C230   1.422       .  A
C229        C234   1.420       .  A
C229        C617   1.524       .  S
C230        C231   1.407       .  A
C230        H235   1.080       .  S
C231        C232   1.389       .  A
C231        C544   1.484       .  S
C232        C233   1.392       .  A
C232        H236   1.084       .  S
C233        C234   1.411       .  A
C233        C530   1.487       .  S
C234        H237   1.079       .  S
C238        C239   1.401       .  A
C238        C243   1.411       .  A
C238        C516   1.491       .  S
C239        C240   1.397       .  A
C239        H244   1.084       .  S
C240        C241   1.400       .  A
C240        C502   1.472       .  S
C241        C242   1.407       .  A
C241        H245   1.083       .  S
C242        C243   1.414       .  A
C242        C673   1.498       .  S
C243        H246   1.083       .  S
C247        C248   1.416       .  A
C247        C252   1.412       .  A
C247        C645   1.509       .  S
C248        C249   1.413       .  A
C248        H253   1.080       .  S
C249        C250   1.406       .  A
C249        C491   1.497       .  S
C250        C251   1.398       .  A
C250        H254   1.083       .  S
C251        C252   1.405       .  A
C251        C477   1.490       .  S
C252        H255   1.083       .  S
C256        C257   1.405       .  A
C256        C261   1.389       .  A
C256        C446   1.477       .  S
C257        C258   1.412       .  A
C257        H262   1.079       .  S
C258        C259   1.416       .  A
C258        C701   1.509       .  S
C259        C260   1.407       .  A
C259        H263   1.081       .  S
C260        C261   1.394       .  A
C260        C460   1.484       .  S
C261        H264   1.084       .  S
C265        C302   1.475       .  S
C265        C505   1.492       .  S
C265        N283   1.348       .  A
N266        N283   1.319       .  A
N266        N288   1.315       .  A
N266       Co303   2.065       .  S
C267        C305   1.455       .  S
C267        H312   1.082       .  S
C267        N292   1.335       .  A
H268        C309   1.081       .  S
C269        C273   1.476       .  S
C269        H298   1.080       .  S
C269        N293   1.349       .  A
Co270       N288   2.091       .  S
Co270       N278   2.068       .  S
Co270       N310   2.060       .  S
Co270       N286   2.102       .  S
Co270      Cl314   2.463       .  S
N271        C309   1.341       .  A
N271        N278   1.322       .  A
N271       Co272   2.097       .  S
Co272       N275   2.064       .  S
Co272       N292   2.060       .  S
Co272       N279   2.102       .  S
Co272      Cl314   2.430       .  S
C273        C432   1.494       .  S
C273        N311   1.347       .  A
N274        N281   1.323       .  A
N274        N304   1.321       .  A
N274       Co307   2.063       .  S
N275        N293   1.315       .  A
N275        N311   1.319       .  A
N276        C305   1.357       .  A
N276        N286   1.330       .  A
H277        C302   1.079       .  S
N278        N299   1.322       .  A
N279        N297   1.322       .  A
N279        N284   1.328       .  A
C280        C308   1.445       .  S
C280        C449   1.464       .  S
C280        N284   1.354       .  A
N281        C296   1.340       .  A
N281       Co303   2.103       .  S
C282        C285   1.447       .  S
C282        H316   1.082       .  S
C282        N310   1.330       .  A
C285        C533   1.471       .  S
C285        N306   1.357       .  A
N286        N292   1.315       .  A
N287        C313   1.337       .  A
N287        N289   1.317       .  A
N287       Co303   2.069       .  S
N288        C302   1.346       .  A
N289        N317   1.329       .  A
N289       Co307   2.093       .  S
H290        C313   1.081       .  S
H291        C308   1.081       .  S
N293       Co307   2.096       .  S
N294        N306   1.330       .  A
N294        N310   1.323       .  A
N294       Co303   2.118       .  S
C295        C309   1.459       .  S
C295        C586   1.466       .  S
C295        N299   1.346       .  A
C296        C315   1.464       .  S
C296        H300   1.081       .  S
N297        C308   1.327       .  A
N297       Co307   2.051       .  S
C301        C313   1.460       .  S
C301        C488   1.486       .  S
C301        N317   1.354       .  A
Co303      Cl314   2.432       .  S
N304        C315   1.345       .  A
C305        C575   1.477       .  S
Co307      Cl314   2.467       .  S
C315        C418   1.472       .  S
C318        C319   1.409       .  A
C318        C323   1.403       .  A
C318        C404   1.490       .  S
C319        C320   1.411       .  A
C319        H324   1.083       .  S
C320        C321   1.409       .  A
C320        C656   1.497       .  S
C321        C322   1.404       .  A
C321        H325   1.083       .  S
C322        C323   1.400       .  A
C322        C435   1.478       .  S
C323        H326   1.084       .  S
C327        C328   1.407       .  A
C327        C332   1.395       .  A
C327        C390   1.484       .  S
C328        C329   1.410       .  A
C328        H333   1.083       .  S
C329        C330   1.410       .  A
C329        C715   1.489       .  S
C330        C331   1.404       .  A
C330        H334   1.082       .  S
C331        C332   1.396       .  A
C331        C421   1.482       .  S
C332        H335   1.084       .  S
C336        C373   1.451       .  S
C336        C603   1.469       .  S
C336        N354   1.353       .  A
N337        N354   1.327       .  A
N337        N359   1.323       .  A
N337       Co374   2.111   1_655  S
C338        C376   1.472       .  S
C338        H383   1.081       .  S
C338        N363   1.347       .  A
H339        C380   1.082       .  S
C340        C344   1.450       .  S
C340        H369   1.081       .  S
C340        N364   1.332       .  A
Co341       N359   2.064   1_445  S
Co341       N349   2.092   1_455  S
Co341       N381   2.090   1_545  S
Co341       N357   2.058       .  S
Co341      Cl385   2.463   1_545  S
N342        C380   1.336       .  A
N342        N349   1.315       .  A
N342       Co343   2.066   1_655  S
Co343       N346   2.110   1_455  S
Co343       N363   2.116       .  S
Co343       N350   2.060       .  S
Co343      Cl385   2.432   1_545  S
C344        C463   1.471       .  S
C344        N382   1.355       .  A
N345        N352   1.317       .  A
N345        N375   1.329       .  A
N345       Co378   2.095   1_655  S
N346        N364   1.323       .  A
N346        N382   1.326       .  A
N347        C376   1.342       .  A
N347        N357   1.318       .  A
H348        C373   1.082       .  S
N349        N370   1.329       .  A
N350        N368   1.317       .  A
N350        N355   1.320       .  A
C351        C379   1.467       .  S
C351        C474   1.479       .  S
C351        N355   1.345       .  A
N352        C367   1.336       .  A
N352       Co374   2.063   1_655  S
C353        C356   1.464       .  S
C353        H387   1.082       .  S
C353        N381   1.346       .  A
C356        C519   1.475       .  S
C356        N377   1.348       .  A
N357        N363   1.322       .  A
N358        C384   1.344       .  A
N358        N360   1.323       .  A
N358       Co374   2.112       .  S
N359        C373   1.334       .  A
N360        N388   1.318       .  A
N360       Co378   2.059       .  S
H361        C384   1.081       .  S
H362        C379   1.081       .  S
N364       Co378   2.060   1_645  S
N365        N377   1.320       .  A
N365        N381   1.316       .  A
N365       Co374   2.065       .  S
C366        C380   1.458       .  S
C366        C558   1.490       .  S
C366        N370   1.356       .  A
C367        C386   1.455       .  S
C367        H371   1.082       .  S
N368        C379   1.348       .  A
N368       Co378   2.096   1_545  S
C372        C384   1.470       .  S
C372        C393   1.476       .  S
C372        N388   1.343       .  A
Co374      Cl385   2.435       .  S
N375        C386   1.354       .  A
C376        C547   1.479       .  S
Co378      Cl385   2.461       .  S
C386        C407   1.478       .  S
C389        C390   1.400       .  A
C389        C394   1.398       .  A
C389        H396   1.084       .  S
C390        C391   1.419       .  A
C391        C392   1.399       .  A
C391        N398   1.433       .  S
C392        C393   1.399       .  A
C392        H397   1.083       .  S
C393        C394   1.415       .  A
C394        N395   1.429       .  S
N395        O399   1.262       .  A
N395        O400   1.262       .  A
N398        O402   1.263       .  A
N398        O401   1.262       .  A
C403        C404   1.403       .  A
C403        C408   1.399       .  A
C403        H410   1.084       .  S
C404        C405   1.416       .  A
C405        C406   1.406       .  A
C405        N412   1.430       .  S
C406        C407   1.400       .  A
C406        H411   1.084       .  S
C407        C408   1.412       .  A
C408        N409   1.431       .  S
N409        O413   1.262       .  A
N409        O414   1.262   1_655  A
N412        O416   1.262       .  A
N412        O415   1.262       .  A
C417        C418   1.405       .  A
C417        C422   1.402       .  A
C417        H424   1.084       .  S
C418        C419   1.407       .  A
C419        C420   1.393       .  A
C419        N426   1.431       .  S
C420        C421   1.406       .  A
C420        H425   1.084       .  S
C421        C422   1.410       .  A
C422        N423   1.429       .  S
N423        O427   1.262       .  A
N423        O428   1.262       .  A
N426        O430   1.262       .  A
N426        O429   1.262       .  A
C431        C432   1.410       .  A
C431        C436   1.396       .  A
C431        H438   1.083       .  S
C432        C433   1.415       .  A
C433        C434   1.409       .  A
C433        N440   1.428       .  S
C434        C435   1.403       .  A
C434        H439   1.084       .  S
C435        C436   1.404       .  A
C436        N437   1.430       .  S
N437        O441   1.262       .  A
N437        O442   1.262       .  A
N440        O444   1.262       .  A
N440        O443   1.262       .  A
C445        C446   1.409       .  A
C445        C450   1.402       .  A
C445        H452   1.084       .  S
C446        C447   1.411       .  A
C447        C448   1.392       .  A
C447        N454   1.434       .  S
C448        C449   1.399       .  A
C448        H453   1.084       .  S
C449        C450   1.406       .  A
C450        N451   1.431       .  S
N451        O455   1.262       .  A
N451        O456   1.262       .  A
N454        O458   1.263       .  A
N454        O457   1.263       .  A
C459        C460   1.408       .  A
C459        C464   1.395       .  A
C459        H466   1.084       .  S
C460        C461   1.412       .  A
C461        C462   1.399       .  A
C461        N468   1.432       .  S
C462        C463   1.405       .  A
C462        H467   1.084       .  S
C463        C464   1.404       .  A
C464        N465   1.429       .  S
N465        O469   1.262       .  A
N465        O470   1.262       .  A
N468        O472   1.262       .  A
N468        O471   1.262       .  A
C473        C474   1.401       .  A
C473        C478   1.408       .  A
C473        H480   1.084       .  S
C474        C475   1.413       .  A
C475        C476   1.396       .  A
C475        N482   1.431       .  S
C476        C477   1.402       .  A
C476        H481   1.084       .  S
C477        C478   1.417       .  A
C478        N479   1.430       .  S
N479        O483   1.262       .  A
N479        O484   1.262       .  A
N482        O486   1.262       .  A
N482        O485   1.262       .  A
C487        C488   1.408       .  A
C487        C492   1.410       .  A
C487        H494   1.084       .  S
C488        C489   1.411       .  A
C489        C490   1.398       .  A
C489        N496   1.434       .  S
C490        C491   1.407       .  A
C490        H495   1.084       .  S
C491        C492   1.414       .  A
C492        N493   1.430       .  S
N493        O497   1.262       .  A
N493        O498   1.262       .  A
N496        O500   1.262       .  A
N496        O499   1.262       .  A
C501        C502   1.398       .  A
C501        C506   1.404       .  A
C501        H508   1.084       .  S
C502        C503   1.404       .  A
C503        C504   1.397       .  A
C503        N510   1.431       .  S
C504        C505   1.411       .  A
C504        H509   1.083       .  S
C505        C506   1.416       .  A
C506        N507   1.425       .  S
N507        O511   1.261       .  A
N507        O512   1.262       .  A
N510        O514   1.262       .  A
N510        O513   1.262       .  A
C515        C516   1.411       .  A
C515        C520   1.406       .  A
C515        H522   1.084       .  S
C516        C517   1.414       .  A
C517        C518   1.399       .  A
C517        N524   1.431       .  S
C518        C519   1.402       .  A
C518        H523   1.084       .  S
C519        C520   1.405       .  A
C520        N521   1.429       .  S
N521        O525   1.262       .  A
N521        O526   1.262       .  A
N524        O528   1.262       .  A
N524        O527   1.262       .  A
C529        C530   1.411       .  A
C529        C534   1.400       .  A
C529        H536   1.084       .  S
C530        C531   1.410       .  A
C531        C532   1.398       .  A
C531        N538   1.430       .  S
C532        C533   1.404       .  A
C532        H537   1.084       .  S
C533        C534   1.403       .  A
C534        N535   1.428       .  S
N535        O539   1.262       .  A
N535        O540   1.262       .  A
N538        O542   1.262       .  A
N538        O541   1.262       .  A
C543        C544   1.408       .  A
C543        C548   1.404       .  A
C543        H550   1.084       .  S
C544        C545   1.409       .  A
C545        C546   1.397       .  A
C545        N552   1.430       .  S
C546        C547   1.405       .  A
C546        H551   1.084       .  S
C547        C548   1.412       .  A
C548        N549   1.433       .  S
N549        O553   1.262       .  A
N549        O554   1.263       .  A
N552        O556   1.262       .  A
N552        O555   1.262       .  A
C557        C558   1.404       .  A
C557        C562   1.401       .  A
C557        H564   1.083       .  S
C558        C559   1.413       .  A
C559        C560   1.407       .  A
C559        N566   1.428       .  S
C560        C561   1.407       .  A
C560        H565   1.084       .  S
C561        C562   1.414       .  A
C562        N563   1.433       .  S
N563        O567   1.262       .  A
N563        O568   1.262       .  A
N566        O570   1.262       .  A
N566        O569   1.262       .  A
C571        C572   1.411       .  A
C571        C576   1.406       .  A
C571        H578   1.084       .  S
C572        C573   1.416       .  A
C573        C574   1.402       .  A
C573        N580   1.430       .  S
C574        C575   1.402       .  A
C574        H579   1.084       .  S
C575        C576   1.406       .  A
C576        N577   1.429       .  S
N577        O581   1.262       .  A
N577        O582   1.262       .  A
N580        O584   1.262       .  A
N580        O583   1.262       .  A
C585        C586   1.397       .  A
C585        C590   1.400       .  A
C585        H592   1.084       .  S
C586        C587   1.406       .  A
C587        C588   1.398       .  A
C587        N594   1.429       .  S
C588        C589   1.406       .  A
C588        H593   1.083       .  S
C589        C590   1.419       .  A
C590        N591   1.435       .  S
N591        O595   1.262       .  A
N591        O596   1.263       .  A
N594        O598   1.262       .  A
N594        O597   1.261       .  A
C599        C600   1.403       .  A
C599        C604   1.399       .  A
C599        H606   1.084       .  S
C600        C601   1.417       .  A
C601        C602   1.403       .  A
C601        N608   1.436       .  S
C602        C603   1.399       .  A
C602        H607   1.084       .  S
C603        C604   1.410       .  A
C604        N605   1.432       .  S
N605        O609   1.262       .  A
N605        O610   1.262       .  A
N608        O612   1.263       .  A
N608        O611   1.262       .  A
C613        C614   1.398       .  A
C613        C618   1.404       .  A
C613        H620   1.085       .  S
C614        C615   1.413       .  A
C615        C616   1.410       .  A
C615        N622   1.438   1_545  S
C616        C617   1.416       .  A
C616        H621   1.080       .  S
C617        C618   1.426       .  A
C618        N619   1.428       .  S
N619        O623   1.263       .  A
N619        O624   1.261       .  A
N622        O626   1.262       .  A
N622        O625   1.263       .  A
C627        C628   1.403       .  A
C627        C632   1.403       .  A
C627        H634   1.083       .  S
C628        C629   1.413       .  A
C629        C630   1.398       .  A
C629        N636   1.431       .  S
C630        C631   1.406       .  A
C630        H635   1.084       .  S
C631        C632   1.417       .  A
C632        N633   1.433       .  S
N633        O637   1.262       .  A
N633        O638   1.262       .  A
N636        O640   1.262   1_565  A
N636        O639   1.261   1_565  A
C641        C642   1.406       .  A
C641        C646   1.407       .  A
C641        H648   1.084       .  S
C642        C643   1.416       .  A
C643        C644   1.407       .  A
C643        N650   1.433       .  S
C644        C645   1.409       .  A
C644        H649   1.083       .  S
C645        C646   1.418       .  A
C646        N647   1.430       .  S
N647        O651   1.262       .  A
N647        O652   1.262       .  A
N650        O654   1.262       .  A
N650        O653   1.263       .  A
C655        C656   1.407       .  A
C655        C660   1.404       .  A
C655        H662   1.084       .  S
C656        C657   1.414       .  A
C657        C658   1.404       .  A
C657        N664   1.430       .  S
C658        C659   1.407       .  A
C658        H663   1.083       .  S
C659        C660   1.413       .  A
C660        N661   1.430   1_655  S
N661        O665   1.262       .  A
N661        O666   1.262       .  A
N664        O668   1.262       .  A
N664        O667   1.262       .  A
C669        C670   1.406       .  A
C669        C674   1.405       .  A
C669        H676   1.084       .  S
C670        C671   1.415       .  A
C671        C672   1.404       .  A
C671        N678   1.431       .  S
C672        C673   1.406       .  A
C672        H677   1.084       .  S
C673        C674   1.417       .  A
C674        N675   1.432       .  S
N675        O679   1.262       .  A
N675        O680   1.262       .  A
N678        O682   1.262   1_455  A
N678        O681   1.262   1_455  A
C683        C684   1.404       .  A
C683        C688   1.406       .  A
C683        H690   1.081       .  S
C684        C685   1.415       .  A
C685        C686   1.407       .  A
C685        N692   1.434       .  S
C686        C687   1.409       .  A
C686        H691   1.084       .  S
C687        C688   1.418       .  A
C688        N689   1.432       .  S
N689        O693   1.262       .  A
N689        O694   1.262       .  A
N692        O696   1.262       .  A
N692        O695   1.263       .  A
C697        C698   1.398       .  A
C697        C702   1.403       .  A
C697        H704   1.084       .  S
C698        C699   1.405       .  A
C699        C700   1.399       .  A
C699        N706   1.429   1_545  S
C700        C701   1.411       .  A
C700        H705   1.083       .  S
C701        C702   1.424       .  A
C702        N703   1.429       .  S
N703        O707   1.261       .  A
N703        O708   1.263       .  A
N706        O710   1.262       .  A
N706        O709   1.261       .  A
C711        C712   1.407       .  A
C711        C716   1.396       .  A
C711        H718   1.083       .  S
C712        C713   1.416       .  A
C713        C714   1.409       .  A
C713        N720   1.435       .  S
C714        C715   1.407       .  A
C714        H719   1.084       .  S
C715        C716   1.409       .  A
C716        N717   1.432       .  S
N717        O721   1.262       .  A
N717        O722   1.262       .  A
N720        O724   1.262       .  A
N720        O723   1.263       .  A
C725        C726   1.400       .  A
C725        C730   1.403   1_556  A
C725        H732   1.096       .  S
C726        C727   1.410   1_556  A
C727        C728   1.401       .  A
C727        N734   1.429       .  S
C728        C729   1.409       .  A
C728        H733   1.089       .  S
C729        C730   1.419       .  A
C730        N731   1.431       .  S
N731        O735   1.262   1_554  A
N731        O736   1.263       .  A
N734        O738   1.262       .  A
N734        O737   1.262   1_554  A
C739        C740   1.404       .  A
C739        C744   1.398       .  A
C739        H746   1.084       .  S
C740        C741   1.407       .  A
C741        C742   1.407       .  A
C741        N748   1.426       .  S
C742        C743   1.407       .  A
C742        H747   1.084       .  S
C743        C744   1.413       .  A
C744        N745   1.434       .  S
N745        O749   1.262       .  A
N745        O750   1.263       .  A
N748        O752   1.262       .  A
N748        O751   1.262       .  A
C753        C754   1.403       .  A
C753        C758   1.400       .  A
C753        H760   1.084       .  S
C754        C755   1.412       .  A
C755        C756   1.405       .  A
C755        N762   1.429       .  S
C756        C757   1.406       .  A
C756        H761   1.084       .  S
C757        C758   1.417       .  A
C758        N759   1.435       .  S
N759        O763   1.262   1_455  A
N759        O764   1.261   1_455  A
N762        O766   1.262       .  A
N762        O765   1.262       .  A
C767        C768   1.411       .  A
C767        C772   1.398       .  A
C767        H774   1.083       .  S
C768        C769   1.412       .  A
C769        C770   1.400       .  A
C769        N776   1.429       .  S
C770        C771   1.408       .  A
C770        H775   1.084       .  S
C771        C772   1.409       .  A
C772        N773   1.428       .  S
N773        O777   1.262       .  A
N773        O778   1.262       .  A
N776        O780   1.262       .  A
N776        O779   1.262       .  A
C781        C782   1.403       .  A
C781        C786   1.406       .  A
C781        H788   1.083       .  S
C782        C783   1.411       .  A
C783        C784   1.407       .  A
C783        N790   1.429   1_545  S
C784        C785   1.411       .  A
C784        H789   1.084       .  S
C785        C786   1.420       .  A
C786        N787   1.433       .  S
N787        O791   1.263       .  A
N787        O792   1.262       .  A
N790        O794   1.261       .  A
N790        O793   1.262       .  A
C795        C796   1.400       .  A
C795        C800   1.408       .  A
C795        H802   1.084       .  S
C796        C797   1.412       .  A
C797        C798   1.401       .  A
C797        N804   1.431       .  S
C798        C799   1.405       .  A
C798        H803   1.084       .  S
C799        C800   1.420       .  A
C800        N801   1.434       .  S
N801        O805   1.263       .  A
N801        O806   1.262       .  A
N804        O808   1.262       .  A
N804        O807   1.262       .  A
C809        C810   1.405       .  A
C809        C814   1.401       .  A
C809        H816   1.084       .  S
C810        C811   1.416       .  A
C811        C812   1.406   1_554  A
C811        N818   1.431       .  S
C812        C813   1.406       .  A
C812        H817   1.083       .  S
C813        C814   1.414   1_556  A
C814        N815   1.431       .  S
N815        O819   1.262       .  A
N815        O820   1.262       .  A
N818        O822   1.262       .  A
N818        O821   1.262   1_554  A
C823        C824   1.403       .  A
C823        C828   1.398       .  A
C823        H830   1.084       .  S
C824        C825   1.421       .  A
C825        C826   1.402       .  A
C825        N832   1.434       .  S
C826        C827   1.397       .  A
C826        H831   1.084       .  S
C827        C828   1.409       .  A
C828        N829   1.429       .  S
N829        O833   1.262       .  A
N829        O834   1.261       .  A
N832        O836   1.262       .  A
N832        O835   1.262       .  A
C837        C838   1.402       .  A
C837        C842   1.400       .  A
C837        H844   1.084       .  S
C838        C839   1.413       .  A
C839        C840   1.407       .  A
C839        N846   1.429       .  S
C840        C841   1.406       .  A
C840        H845   1.084       .  S
C841        C842   1.416       .  A
C842        N843   1.432       .  S
N843        O847   1.262       .  A
N843        O848   1.262       .  A
N846        O850   1.262       .  A
N846        O849   1.262       .  A
C851        C852   1.402       .  A
C851        C856   1.397       .  A
C851        H858   1.084       .  S
C852        C853   1.404       .  A
C853        C854   1.400       .  A
C853        N860   1.429       .  S
C854        C855   1.411       .  A
C854        H859   1.083       .  S
C855        C856   1.415       .  A
C856        N857   1.432       .  S
N857        O861   1.262       .  A
N857        O862   1.262       .  A
N860        O864   1.262       .  A
N860        O863   1.262       .  A
C865        C866   1.404       .  A
C865        C870   1.399       .  A
C865        H872   1.084       .  S
C866        C867   1.420       .  A
C867        C868   1.409       .  A
C867        N874   1.435       .  S
C868        C869   1.400       .  A
C868        H873   1.084       .  S
C869        C870   1.410       .  A
C870        N871   1.431       .  S
N871        O875   1.262   1_545  A
N871        O876   1.262       .  A
N874        O878   1.263       .  A
N874        O877   1.262       .  A
C879        C880   1.409       .  A
C879        C884   1.395       .  A
C879        H886   1.084       .  S
C880        C881   1.413       .  A
C881        C882   1.402       .  A
C881        N888   1.430       .  S
C882        C883   1.402       .  A
C882        H887   1.084       .  S
C883        C884   1.402       .  A
C884        N885   1.429       .  S
N885        O889   1.262       .  A
N885        O890   1.262       .  A
N888        O892   1.262       .  A
N888        O891   1.262       .  A
C893        C894   1.416       .  A
C893        C898   1.402       .  A
C893        H900   1.081       .  S
C894        C895   1.426       .  A
C895        C896   1.406       .  A
C895        N902   1.429       .  S
C896        C897   1.399   1_554  A
C896        H901   1.084   1_654  S
C897        C898   1.403   1_556  A
C898        N899   1.429       .  S
N899        O903   1.262   1_554  A
N899        O904   1.262       .  A
N902        O906   1.263   1_655  A
N902        O905   1.261       .  A
C907        C908   1.405       .  A
C907        C912   1.397       .  A
C907        H914   1.083       .  S
C908        C909   1.407       .  A
C909        C910   1.405       .  A
C909        N916   1.429       .  S
C910        C911   1.411       .  A
C910        H915   1.084       .  S
C911        C912   1.410       .  A
C912        N913   1.431       .  S
N913        O917   1.262       .  A
N913        O918   1.262       .  A
N916        O920   1.262       .  A
N916        O919   1.262       .  A
C921        C922   1.401       .  A
C921        C926   1.402       .  A
C921        H928   1.084       .  S
C922        C923   1.410       .  A
C923        C924   1.399       .  A
C923        N930   1.431       .  S
C924        C925   1.399       .  A
C924        H929   1.084       .  S
C925        C926   1.408       .  A
C926        N927   1.429       .  S
N927        O931   1.262       .  A
N927        O932   1.262       .  A
N930        O934   1.262       .  A
N930        O933   1.262       .  A
C935        C936   1.409       .  A
C935        C940   1.409       .  A
C935        H942   1.083       .  S
C936        C937   1.419       .  A
C937        C938   1.403       .  A
C937        N944   1.432       .  S
C938        C939   1.403       .  A
C938        H943   1.084       .  S
C939        C940   1.415       .  A
C940        N941   1.435       .  S
N941        O945   1.263       .  A
N941        O946   1.262       .  A
N944        O948   1.262       .  A
N944        O947   1.262       .  A
C949        C950   1.406       .  A
C949        C954   1.409       .  A
C949        H956   1.084       .  S
C950        C951   1.416       .  A
C951        C952   1.394       .  A
C951        N958   1.432       .  S
C952        C953   1.400       .  A
C952        H957   1.085       .  S
C953        C954   1.414       .  A
C954        N955   1.428       .  S
N955        O959   1.262       .  A
N955        O960   1.262       .  A
N958        O962   1.262       .  A
N958        O961   1.262       .  A
C963        C964   1.409       .  A
C963        C968   1.409       .  A
C963        H970   1.083       .  S
C964        C965   1.413       .  A
C965        C966   1.394       .  A
C965        N972   1.430       .  S
C966        C967   1.401       .  A
C966        H971   1.082       .  S
C967        C968   1.409       .  A
C968        N969   1.429       .  S
N969        O973   1.262       .  A
N969        O974   1.262       .  A
N972        O976   1.262       .  A
N972        O975   1.262       .  A
C977        C978   1.411       .  A
C977        C982   1.409   1_554  A
C977        H984   1.083       .  S
C978        C979   1.422       .  A
C979        C980   1.408       .  A
C979        N986   1.431       .  S
C980        C981   1.403   1_554  A
C980        H985   1.084       .  S
C981        C982   1.414       .  A
C982        N983   1.435       .  S
N983        O987   1.262   1_565  A
N983        O988   1.263       .  A
N986        O990   1.262       .  A
N986        O989   1.262       .  A
C991        C992   1.410       .  A
C991        C996   1.411       .  A
C991        H998   1.083       .  S
C992        C993   1.421       .  A
C993        C994   1.395       .  A
C993       N1000   1.430       .  S
C994        C995   1.398       .  A
C994        H999   1.084       .  S
C995        C996   1.413       .  A
C996        N997   1.428       .  S
N997       O1001   1.262       .  A
N997       O1002   1.262       .  A
N1000      O1004   1.263       .  A
N1000      O1003   1.262       .  A
C1005      C1006   1.410       .  A
C1005      C1010   1.410       .  A
C1005      H1012   1.083       .  S
C1006      C1007   1.415       .  A
C1007      C1008   1.396       .  A
C1007      N1014   1.431       .  S
C1008      C1009   1.399       .  A
C1008      H1013   1.082       .  S
C1009      C1010   1.409       .  A
C1010      N1011   1.429       .  S
N1011      O1015   1.262       .  A
N1011      O1016   1.262       .  A
N1014      O1018   1.262       .  A
N1014      O1017   1.262       .  A
C1019      C1020   1.404       .  A
C1019      C1024   1.409       .  A
C1019      H1026   1.084       .  S
C1020      C1021   1.410       .  A
C1021      C1022   1.401       .  A
C1021      N1028   1.435       .  S
C1022      C1023   1.411       .  A
C1022      H1027   1.081       .  S
C1023      C1024   1.421       .  A
C1024      N1025   1.431       .  S
N1025      O1029   1.262       .  A
N1025      O1030   1.263       .  A
N1028      O1032   1.262       .  A
N1028      O1031   1.262       .  A
C1033      C1034   1.412       .  A
C1033      C1038   1.402       .  A
C1033      H1040   1.083       .  S
C1034      C1035   1.418       .  A
C1035      C1036   1.401       .  A
C1035      N1042   1.430       .  S
C1036      C1037   1.402       .  A
C1036      H1041   1.084       .  S
C1037      C1038   1.406       .  A
C1038      N1039   1.429       .  S
N1039      O1043   1.262       .  A
N1039      O1044   1.262       .  A
N1042      O1046   1.262       .  A
N1042      O1045   1.262       .  A
C1047      C1048   1.403       .  A
C1047      C1052   1.401       .  A
C1047      H1054   1.083       .  S
C1048      C1049   1.420       .  A
C1049      C1050   1.402       .  A
C1049      N1056   1.433       .  S
C1050      C1051   1.397       .  A
C1050      H1055   1.084       .  S
C1051      C1052   1.412       .  A
C1052      N1053   1.430       .  S
N1053      O1057   1.262   1_655  A
N1053      O1058   1.262       .  A
N1056      O1060   1.262       .  A
N1056      O1059   1.262       .  A
