geometry optimzed in LAMMPS
_audit_creation_date              2020-12-01 
_audit_creation_method            'lammps2cif' 
_symmetry_space_group_name_H-M    'P1' 
_symmetry_Int_Tables_number       1 
_symmetry_cell_setting            triclinic 
loop_ 
_symmetry_equiv_pos_as_xyz 
  x,y,z 
_cell_length_a                    45.77043578 
_cell_length_b                    24.785465175740352 
_cell_length_c                    35.06431957822232 
_cell_angle_alpha                 90.3888026034608 
_cell_angle_beta                  90.84316873977002 
_cell_angle_gamma                 89.23867952646019 
loop_ 
_atom_site_label 
_atom_site_type_symbol 
_atom_site_fract_x 
_atom_site_fract_y 
_atom_site_fract_z 
_atom_site_charge 
O1          O  0.46450884  0.33549107  0.11837125    -0.54600
C2          C  0.40819391  0.47423964  0.13012624     0.78100
O3          O  0.49273769  0.48509956  0.18126297    -0.55700
C4          C  0.49196804  0.32711180  0.11886775     0.78000
C5          C  0.48696306  0.48256278  0.05990588     0.80400
Cd6        Cd  0.46768756  0.43427393  0.12887143     1.37500
O7          O  0.41350361  0.42395261  0.12727184    -0.54600
O8          O  0.46698499  0.44774197  0.06015731    -0.53400
C9          C  0.48566909  0.45169365  0.20662945     0.80400
O10         O  0.49841348  0.49516173  0.09184159    -0.55700
O11         O  0.43004215  0.50467086  0.13298973    -0.54200
O12         O  0.50789664  0.36811230  0.12288713    -0.54200
O13         O  0.47013360  0.41243349  0.19587266    -0.53400
O14         O  0.27021390  0.63559595  0.11548334    -0.54600
C15         C  0.32455122  0.49189192  0.12582047     0.78100
O16         O  0.23239679  0.49393816  0.16862234    -0.55700
C17         C  0.24298373  0.64527290  0.11812227     0.78000
C18         C  0.24682635  0.49386439  0.04963561     0.80400
Cd19       Cd  0.26571932  0.53559379  0.12276336     1.37500
O20         O  0.31985523  0.54254926  0.12612238    -0.54600
O21         O  0.26573102  0.53046801  0.05286356    -0.53400
C22         C  0.24587799  0.51063444  0.19815768     0.80400
O23         O  0.23652012  0.47594507  0.08037734    -0.55700
O24         O  0.30230164  0.46220405  0.12411338    -0.54200
O25         O  0.22688232  0.60496519  0.12276778    -0.54200
O26         O  0.26924703  0.53610701  0.19285543    -0.53400
O27         O  0.02503416  0.64456883  0.88005385    -0.54600
C28         C  0.07535883  0.49883950  0.87843626     0.78100
O29         O  0.48382108  0.50208973  0.92247094    -0.55700
C30         C  0.99804504  0.65697083  0.87863413     0.78000
C31         C  0.99856850  0.51734718  0.80109688     0.80400
Cd32       Cd  0.01711350  0.54462506  0.87725587     1.37500
O33         O  0.07132459  0.54958181  0.88063026    -0.54600
O34         O  0.02353520  0.53646548  0.80834430    -0.53400
C35         C  0.99512897  0.49944085  0.94625375     0.80400
O36         O  0.49135835  0.50002186  0.83457926    -0.55700
O37         O  0.05274375  0.47016686  0.87648120    -0.54200
O38         O  0.47869836  0.62656844  0.88049753    -0.54200
O39         O  0.01424638  0.53590213  0.94685392    -0.53400
O40         O  0.16268165  0.42557471  0.87471521    -0.54600
C41         C  0.24003865  0.32252853  0.87011207     0.78100
O42         O  0.24543974  0.46933001  0.81570736    -0.55700
C43         C  0.15848748  0.47639470  0.87333336     0.78000
C44         C  0.23744144  0.47176959  0.94147875     0.80400
Cd45       Cd  0.21649626  0.43138140  0.86892395     1.37500
O46         O  0.21279047  0.33138546  0.87371472    -0.54600
O47         O  0.21942978  0.43361535  0.93861512    -0.53400
C48         C  0.22686512  0.45627259  0.79005637     0.80400
O49         O  0.24634401  0.49159817  0.91048573    -0.55700
O50         O  0.25582382  0.36338710  0.86566002    -0.54200
O51         O  0.18088790  0.50531741  0.87012051    -0.54200
O52         O  0.20381842  0.43414168  0.80116824    -0.53400
O53         O  0.02760618  0.29718624  0.38176722    -0.54600
C54         C  0.08369345  0.42684824  0.37172487     0.78100
O55         O  0.99871101  0.44423644  0.32011049    -0.55700
C56         C  0.00043020  0.29024569  0.38617735     0.78000
C57         C  0.00446717  0.45158449  0.44156916     0.80400
Cd58       Cd  0.02345886  0.39569035  0.37429924     1.37500
O59         O  0.07696521  0.37909329  0.38034326    -0.54600
O60         O  0.02402078  0.41503120  0.44235137    -0.53400
C61         C  0.00317542  0.40569990  0.29681955     0.80400
O62         O  0.49517545  0.47206185  0.42064367    -0.55700
O63         O  0.06280382  0.45874759  0.36339156    -0.54200
O64         O  0.48279382  0.34288860  0.39658903    -0.54200
O65         O  0.01718334  0.36518985  0.30926070    -0.53400
O66         O  0.15572046  0.56724209  0.36593800    -0.54600
C67         C  0.22065732  0.67411296  0.37420479     0.78100
O68         O  0.23334300  0.50259857  0.42415755    -0.55700
C69         C  0.15079788  0.51737840  0.36955703     0.78000
C70         C  0.23554557  0.52442157  0.30543951     0.80400
Cd71       Cd  0.20868776  0.55974544  0.37557127     1.37500
O72         O  0.19489068  0.65639966  0.37154593    -0.54600
O73         O  0.20859786  0.53563331  0.30752264    -0.53400
C74         C  0.22293126  0.52795349  0.45253604     0.80400
O75         O  0.25017838  0.52652968  0.33633540    -0.55700
O76         O  0.24093746  0.63916199  0.37728047    -0.54200
O77         O  0.17269760  0.48678004  0.37589023    -0.54200
O78         O  0.20641180  0.56785767  0.44523812    -0.53400
O79         O  0.41453415  0.55585724  0.61144482    -0.54600
C80         C  0.49326575  0.65828849  0.61321881     0.78100
O81         O  0.49087583  0.51352576  0.68142669    -0.55700
C82         C  0.41141110  0.50656404  0.62021687     0.78000
C83         C  0.49269854  0.50120167  0.55745604     0.80400
Cd84       Cd  0.46861700  0.55336412  0.62277935     1.37500
O85         O  0.46576188  0.65163312  0.61040536    -0.54600
O86         O  0.47327587  0.53791387  0.55502445    -0.53400
C87         C  0.48178804  0.55207610  0.70239837     0.80400
O88         O  0.50166334  0.48856325  0.59070765    -0.55700
O89         O  0.01609339  0.60828194  0.61857151    -0.54200
O90         O  0.43414964  0.48093631  0.63065822    -0.54200
O91         O  0.46608668  0.58816423  0.68675940    -0.53400
O92         O  0.27894870  0.32337916  0.61138420    -0.54600
C93         C  0.32970065  0.47492047  0.61038032     0.78100
O94         O  0.24435251  0.47887481  0.56943202    -0.55700
C95         C  0.25173242  0.31515398  0.61503431     0.78000
C96         C  0.26325664  0.45220999  0.69311334     0.80400
Cd97       Cd  0.27403385  0.42381610  0.61484789     1.37500
O98         O  0.32803142  0.42387351  0.61351280    -0.54600
O99         O  0.28616692  0.42774346  0.68248842    -0.53400
C100        C  0.25459680  0.45494488  0.54017900     0.80400
O101        O  0.24487113  0.46567488  0.66716993    -0.55700
O102        O  0.30584799  0.50124721  0.60843196    -0.54200
O103        O  0.23552788  0.35652819  0.61879934    -0.54200
O104        O  0.27282712  0.41699037  0.54596938    -0.53400
O105        O  0.16855874  0.04932103  0.61440798    -0.54600
C106        C  0.24279515  0.16038858  0.61302342     0.78100
O107        O  0.25952570  0.01463588  0.66434472    -0.55700
C108        C  0.16679945  0.99834213  0.61758677     0.78000
C109        C  0.24174749  0.00384132  0.54659220     0.80400
Cd110      Cd  0.22311555  0.04956453  0.61762941     1.37500
O111        O  0.21567062  0.15070765  0.61553218    -0.54600
O112        O  0.22257585  0.04107010  0.54809016    -0.53400
C113        C  0.24447647  0.02647145  0.69333406     0.80400
O114        O  0.25275421  0.98810539  0.57804785    -0.55700
O115        O  0.25974122  0.11984540  0.61201643    -0.54200
O116        O  0.19063168  0.97240713  0.62125341    -0.54200
O117        O  0.21937142  0.04691747  0.68718066    -0.53400
O118        O  0.08280051  0.91450020  0.61454332    -0.54600
C119        C  0.00878856  0.80379405  0.61066832     0.78100
O120        O  0.48646434  0.95758880  0.66091507    -0.55700
C121        C  0.08465879  0.96565112  0.61402350     0.78000
C122        C  0.00595800  0.95629118  0.54449962     0.80400
Cd123      Cd  0.02800702  0.91476759  0.61486936     1.37500
O124        O  0.03580876  0.81371110  0.61530734    -0.54600
O125        O  0.02451089  0.91791102  0.54544384    -0.53400
C126        C  0.00546575  0.94117992  0.68860753     0.80400
O127        O  0.49342563  0.98338775  0.57872116    -0.55700
O128        O  0.48684176  0.85265872  0.61097520    -0.54200
O129        O  0.06083078  0.99197562  0.61376713    -0.54200
O130        O  0.03088192  0.92153357  0.68439359    -0.53400
O131        O  0.45962202  0.13884165  0.38706790    -0.54600
C132        C  0.40819319  0.99740390  0.37044221     0.78100
O133        O  0.50189358  0.00695041  0.32669219    -0.55700
C134        C  0.48689142  0.14765430  0.38679448     0.78000
C135        C  0.48694619  0.99010215  0.44142558     0.80400
Cd136      Cd  0.46614412  0.04016886  0.37328498     1.37500
O137        O  0.41201609  0.04807301  0.37137858    -0.54600
O138        O  0.46864183  0.02879524  0.44160806    -0.53400
C139        C  0.48773368  0.02374185  0.29777598     0.80400
O140        O  0.49551208  0.97334805  0.40919955    -0.55700
O141        O  0.43086863  0.96771452  0.37033152    -0.54200
O142        O  0.50346651  0.10765802  0.38047897    -0.54200
O143        O  0.46302280  0.04554529  0.30366050    -0.53400
O144        O  0.28451234  0.82988160  0.37279940    -0.54600
C145        C  0.32537532  0.97568722  0.36791996     0.78100
O146        O  0.22976446  0.95023797  0.32305623    -0.55700
C147        C  0.25889238  0.81139036  0.37397638     0.78000
C148        C  0.24864207  0.97107752  0.44015058     0.80400
Cd149      Cd  0.26899142  0.92631632  0.36924657     1.37500
O150        O  0.32267022  0.92501321  0.37098008    -0.54600
O151        O  0.26912190  0.93642968  0.43871901    -0.53400
C152        C  0.24562489  0.94648744  0.29387099     0.80400
O153        O  0.23708516  0.98504137  0.40863835    -0.55700
O154        O  0.30202943  0.00340680  0.36512742    -0.54200
O155        O  0.23823392  0.84574071  0.37346499    -0.54200
O156        O  0.27247003  0.93636930  0.29965394    -0.53400
O157        O  0.41593392  0.93154986  0.87756916    -0.54600
C158        C  0.48904334  0.82135773  0.88322914     0.78100
O159        O  0.50714236  0.96160620  0.82787629    -0.55700
C160        C  0.41263240  0.98175595  0.87144944     0.78000
C161        C  0.49122270  0.98256319  0.94108398     0.80400
Cd162      Cd  0.47021952  0.93239906  0.87298989     1.37500
O163        O  0.46236115  0.83274479  0.87624732    -0.54600
O164        O  0.47345832  0.94386794  0.94134681    -0.53400
C165        C  0.49246136  0.94902129  0.79838618     0.80400
O166        O  0.49953422  0.99859254  0.90883240    -0.55700
O167        O  0.01101597  0.85115578  0.87949621    -0.54200
O168        O  0.43559238  0.00810258  0.86573739    -0.54200
O169        O  0.46720183  0.93041025  0.80341062    -0.53400
O170        O  0.32654772  0.06125157  0.87464198    -0.54600
C171        C  0.25051713  0.16837217  0.87681094     0.78100
O172        O  0.23546461  0.02121052  0.83106155    -0.55700
C173        C  0.32985199  0.01021889  0.87579298     0.78000
C174        C  0.25706590  0.02206424  0.95131906     0.80400
Cd175      Cd  0.27221433  0.05817570  0.87651992     1.37500
O176        O  0.27777774  0.15860832  0.87439437    -0.54600
O177        O  0.27390922  0.06130441  0.94613736    -0.53400
C178        C  0.25078055  0.02885310  0.80180088     0.80400
O179        O  0.24653957  0.99935385  0.92167135    -0.55700
O180        O  0.23416072  0.12801266  0.87960727    -0.54200
O181        O  0.30684970  0.98261992  0.87719129    -0.54200
O182        O  0.27617200  0.04705534  0.80746458    -0.53400
O183        O  0.03611881  0.15515917  0.11977115    -0.54600
C184        C  0.07516106  0.99980683  0.11844622     0.78100
O185        O  0.97984057  0.03881295  0.15833961    -0.55700
C186        C  0.01116646  0.17474857  0.11121902     0.78000
C187        C  0.99982797  0.01431294  0.04561881     0.80400
Cd188      Cd  0.02056052  0.05890904  0.11587879     1.37500
O189        O  0.07447278  0.05094087  0.11599035    -0.54600
O190        O  0.02016364  0.04843155  0.04685539    -0.53400
C191        C  0.99556157  0.03621480  0.18822877     0.80400
O192        O  0.49028026  0.00238081  0.07779931    -0.55700
O193        O  0.05080450  0.97653214  0.11988498    -0.54200
O194        O  0.48396088  0.13344089  0.10904526    -0.54200
O195        O  0.02262421  0.04381460  0.18453843    -0.53400
O196        O  0.15883487  0.91075897  0.11662809    -0.54600
C197        C  0.23385132  0.79975455  0.11195661     0.78100
O198        O  0.23923357  0.96619730  0.06587831    -0.55700
C199        C  0.15678089  0.96200061  0.11624358     0.78000
C200        C  0.23688993  0.94139757  0.18560411     0.80400
Cd201      Cd  0.21329499  0.91051476  0.11236806     1.37500
O202        O  0.20666887  0.81034925  0.11427547    -0.54600
O203        O  0.21245687  0.91860937  0.18155440    -0.53400
C204        C  0.22729118  0.94483126  0.03666349     0.80400
O205        O  0.25051013  0.95195475  0.15536773    -0.55700
O206        O  0.25061320  0.83960206  0.10951817    -0.54200
O207        O  0.18036400  0.98772374  0.11440004    -0.54200
O208        O  0.20935086  0.90751123  0.04254810    -0.53400
C209        C  0.10273179  0.96809383  0.11925840    -0.13200
C210        C  0.12875265  0.99198760  0.11734781    -0.28400
H211        H  0.10155354  0.92442238  0.12081099     0.15800
H212        H  0.12969382  0.03569309  0.11586385     0.16400
C213        C  0.25056654  0.00439732  0.99034882    -0.13200
C214        C  0.23358096  0.96203701  0.99743959    -0.28400
H215        H  0.26024035  0.02688583  0.01393530     0.15800
H216        H  0.22372961  0.93967134  0.97392296     0.16400
C217        C  0.50171769  0.00777688  0.97664328    -0.13200
C218        C  0.98996437  0.98953459  0.00961517    -0.28400
H219        H  0.01998153  0.03015697  0.97525864     0.15800
H220        H  0.47443531  0.96229087  0.01174625     0.16400
C221        C  0.38378729  0.00939700  0.87108600    -0.13200
C222        C  0.35875651  0.98287534  0.87575246    -0.28400
H223        H  0.38320796  0.05278229  0.86686462     0.15800
H224        H  0.35934415  0.93938460  0.87942809     0.16400
C225        C  0.23290215  0.95005344  0.25513678    -0.13200
C226        C  0.24943697  0.95226626  0.22381841    -0.28400
H227        H  0.20933355  0.94631450  0.25221373     0.15800
H228        H  0.27287376  0.95813079  0.22647148     0.16400
C229        C  0.48365125  0.02713073  0.22797154    -0.13200
C230        C  0.50026501  0.02082814  0.25946350    -0.28400
H231        H  0.45997676  0.02844414  0.22994273     0.15800
H232        H  0.52383953  0.01647070  0.25721164     0.16400
C233        C  0.35416781  0.00176995  0.36779450    -0.13200
C234        C  0.37907708  0.97275400  0.36982037    -0.28400
H235        H  0.35486291  0.04547436  0.36612803     0.15800
H236        H  0.37822272  0.92902570  0.37112370     0.16400
C237        C  0.99288366  0.94920437  0.72657185    -0.13200
C238        C  0.50488752  0.95334022  0.76024910    -0.28400
H239        H  0.46433913  0.95423686  0.73087061     0.15800
H240        H  0.52852554  0.95458188  0.75798265     0.16400
C241        C  0.49804519  0.96610906  0.47703797    -0.13200
C242        C  0.48997391  0.98598978  0.51105464    -0.28400
H243        H  0.01703587  0.92350991  0.47273805     0.15800
H244        H  0.47463457  0.01971039  0.51268019     0.16400
C245        C  0.25632899  0.01985494  0.73232705    -0.13200
C246        C  0.23896616  0.02049032  0.76291596    -0.28400
H247        H  0.27994574  0.01844414  0.73609056     0.15800
H248        H  0.21536818  0.01932823  0.75912795     0.16400
C249        C  0.25099644  0.97975621  0.51013415    -0.13200
C250        C  0.23880972  0.99446423  0.47658611    -0.28400
H251        H  0.26825910  0.94924160  0.51096473     0.15800
H252        H  0.22141619  0.02471923  0.47573963     0.16400
C253        C  0.11276830  0.99455555  0.61386996    -0.13200
C254        C  0.13875336  0.96922695  0.61706316    -0.28400
H255        H  0.11193009  0.03826459  0.61168526     0.15800
H256        H  0.13960374  0.92555875  0.61959620     0.16400
C257        C  0.25505565  0.21538578  0.61160432    -0.13200
C258        C  0.23883302  0.26056663  0.61514091    -0.28400
H259        H  0.27854751  0.21855226  0.60838238     0.15800
H260        H  0.21536192  0.25761001  0.61864684     0.16400
C261        C  0.50698490  0.71192554  0.61161592    -0.13200
C262        C  0.49101537  0.75747228  0.60918398    -0.28400
H263        H  0.03622074  0.70700401  0.61829507     0.15800
H264        H  0.46736456  0.75502889  0.60688250     0.16400
C265        C  0.38312207  0.47868245  0.61864874    -0.13200
C266        C  0.35780931  0.50349779  0.60961564    -0.28400
H267        H  0.38317965  0.43614483  0.62594532     0.19000
H268        H  0.35747484  0.54631852  0.60317621     0.16400
C269        C  0.22637733  0.73262632  0.37365949    -0.13200
C270        C  0.25353876  0.75276024  0.37556112    -0.28400
H271        H  0.20764087  0.75985076  0.37122287     0.15800
H272        H  0.27233760  0.72563060  0.37760097     0.16400
C273        C  0.22951375  0.51260164  0.49233609    -0.13200
C274        C  0.24651645  0.46981754  0.50077237    -0.28400
H275        H  0.22044279  0.53733890  0.51507836     0.15800
H276        H  0.25566418  0.44543023  0.47788673     0.16400
C277        C  0.49973567  0.20126041  0.39246615    -0.13200
C278        C  0.48390756  0.24657534  0.39730121    -0.28400
H279        H  0.02622031  0.19491373  0.37384958     0.15800
H280        H  0.46024813  0.24486957  0.39875599     0.16400
C281        C  0.99518009  0.47968676  0.47661438    -0.13200
C282        C  0.50408065  0.47408311  0.52316298    -0.28400
H283        H  0.47781856  0.51890477  0.48438843     0.15800
H284        H  0.02405730  0.43629530  0.51288438     0.16400
C285        C  0.11428598  0.44480339  0.37216467    -0.13200
C286        C  0.12080962  0.49689791  0.36673920    -0.28400
H287        H  0.13148606  0.41541226  0.37845301     0.15800
H288        H  0.10343662  0.52616576  0.36099687     0.16400
C289        C  0.25338780  0.26781837  0.87104530    -0.13200
C290        C  0.23758443  0.22338272  0.87629789    -0.28400
H291        H  0.27685461  0.26414133  0.86730767     0.15800
H292        H  0.21409963  0.22718659  0.87983704     0.16400
C293        C  0.23164123  0.46361882  0.74886231    -0.13200
C294        C  0.25849358  0.46186671  0.73417062    -0.28400
H295        H  0.21271608  0.46169306  0.72983490     0.15800
H296        H  0.27737084  0.45892155  0.75325551     0.16400
C297        C  0.48351908  0.72209485  0.88342089    -0.13200
C298        C  0.50044747  0.76557708  0.88743871    -0.28400
H299        H  0.96338113  0.71962646  0.87582362     0.15800
H300        H  0.52373645  0.76025076  0.89289842     0.16400
C301        C  0.49005217  0.55791473  0.74267446    -0.13200
C302        C  0.98806960  0.50925546  0.76168541    -0.28400
H303        H  0.49310005  0.59894833  0.75307044     0.15800
H304        H  0.48641893  0.47611007  0.75833639     0.16400
C305        C  0.12919273  0.50193514  0.87522664    -0.13200
C306        C  0.10467974  0.47322982  0.87777539    -0.28400
H307        H  0.12780812  0.54568319  0.87398922     0.15800
H308        H  0.10601102  0.42945107  0.87838998     0.16400
C309        C  0.23000774  0.70025685  0.11627499    -0.13200
C310        C  0.24629398  0.74436867  0.11228939    -0.28400
H311        H  0.20646180  0.70447316  0.11888387     0.15800
H312        H  0.26984643  0.74000176  0.10988315     0.16400
C313        C  0.23368211  0.50430493  0.23656118    -0.13200
C314        C  0.24955311  0.51355881  0.26846941    -0.28400
H315        H  0.21038673  0.49701791  0.23846468     0.15800
H316        H  0.27304550  0.51864446  0.26679054     0.16400
C317        C  0.23715403  0.47301146  0.01201765    -0.13200
C318        C  0.24748445  0.49230198  0.97905304    -0.28400
H319        H  0.22098907  0.44126447  0.01147712     0.15800
H320        H  0.26349243  0.52430742  0.97957561     0.16400
C321        C  0.48879900  0.22838678  0.11187319    -0.13200
C322        C  0.50520778  0.27249511  0.11595428    -0.28400
H323        H  0.46520932  0.23281974  0.10911848     0.15800
H324        H  0.95981941  0.22693363  0.10224756     0.16400
C325        C  0.49531586  0.45701945  0.24675059    -0.13200
C326        C  0.99210809  0.40524814  0.25734860    -0.28400
H327        H  0.50223825  0.49596575  0.25778211     0.15800
H328        H  0.49211525  0.37368386  0.25610049     0.16400
C329        C  0.49663544  0.50713693  0.02419166    -0.13200
C330        C  0.48441338  0.49423142  0.99029261    -0.28400
H331        H  0.51437562  0.53579456  0.02577467     0.15800
H332        H  0.46670943  0.46548360  0.98876336     0.16400
C333        C  0.37834827  0.49770170  0.12976406    -0.13200
C334        C  0.35424751  0.46761311  0.12719095    -0.28400
H335        H  0.37624390  0.54137394  0.13125265     0.15800
H336        H  0.35626883  0.42391924  0.12586784     0.16400
O337        O  0.94487865  0.32966747  0.10848640    -0.54600
C338        C  0.89874827  0.47414893  0.12144975     0.78100
O339        O  0.97989122  0.47983104  0.17187854    -0.55700
C340        C  0.97107468  0.31235552  0.11033440     0.78000
C341        C  0.98215619  0.46673105  0.05117070     0.80400
Cd342      Cd  0.95668545  0.42568882  0.11932158     1.37500
O343        O  0.90209024  0.42343698  0.11831761    -0.54600
O344        O  0.95996594  0.43686287  0.05034275    -0.53400
C345        C  0.97658699  0.44355300  0.19662652     0.80400
O346        O  0.99300657  0.47751896  0.08372475    -0.55700
O347        O  0.92178137  0.50150691  0.12332479    -0.54200
O348        O  0.99064819  0.34735245  0.11581171    -0.54200
O349        O  0.96416971  0.40090293  0.18546375    -0.53400
O350        O  0.76597337  0.64846118  0.11821936    -0.54600
C351        C  0.81582990  0.50091656  0.12426289     0.78100
O352        O  0.72246325  0.51623260  0.16892563    -0.55700
C353        C  0.73903298  0.66052398  0.11454145     0.78000
C354        C  0.74013335  0.50018327  0.05193202     0.80400
Cd355      Cd  0.75816188  0.54909318  0.12253154     1.37500
O356        O  0.81246500  0.55185144  0.12264594    -0.54600
O357        O  0.75877079  0.53742064  0.05353103    -0.53400
C358        C  0.73810548  0.52716141  0.19797242     0.80400
O359        O  0.72911234  0.48591239  0.08319366    -0.55700
O360        O  0.79284806  0.47332221  0.12578972    -0.54200
O361        O  0.72151245  0.62159821  0.11394793    -0.54200
O362        O  0.76294547  0.54693233  0.19197119    -0.53400
O363        O  0.52250905  0.65559674  0.88950611    -0.54600
C364        C  0.57446201  0.50865625  0.88344271     0.78100
O365        O  0.98603216  0.48395822  0.91377088    -0.55700
C366        C  0.49547020  0.66636172  0.88476118     0.78000
C367        C  0.50032678  0.52809299  0.80714183     0.80400
Cd368      Cd  0.51672623  0.55603088  0.88371703     1.37500
O369        O  0.57125943  0.55961967  0.88496580    -0.54600
O370        O  0.51656439  0.56747997  0.81552286    -0.53400
C371        C  0.49487209  0.51648669  0.95422708     0.80400
O372        O  0.98240298  0.50849867  0.82928288    -0.55700
O373        O  0.55144917  0.48119012  0.88254362    -0.54200
O374        O  0.98049925  0.61814157  0.87737740    -0.54200
O375        O  0.51544549  0.55008845  0.95331672    -0.53400
O376        O  0.65878300  0.42707506  0.88005419    -0.54600
C377        C  0.72536217  0.30943934  0.87482597     0.78100
O378        O  0.74614819  0.45450115  0.82404718    -0.55700
C379        C  0.65671152  0.47820759  0.87868850     0.78000
C380        C  0.73461675  0.46432717  0.94569238     0.80400
Cd381      Cd  0.71234870  0.42399303  0.87421599     1.37500
O382        O  0.69924527  0.32710802  0.87487564    -0.54600
O383        O  0.71477917  0.42933476  0.94370181    -0.53400
C384        C  0.72764728  0.44894031  0.79703311     0.80400
O385        O  0.74533087  0.47943145  0.91442915    -0.55700
O386        O  0.74521803  0.34445735  0.87507646    -0.54200
O387        O  0.68024753  0.50378256  0.87524925    -0.54200
O388        O  0.70245034  0.43377500  0.80601335    -0.53400
O389        O  0.52548557  0.30475164  0.39478266    -0.54600
C390        C  0.58563593  0.42875726  0.38586949     0.78100
O391        O  0.50432665  0.45334222  0.33076040    -0.55700
C392        C  0.49795444  0.29981224  0.39672867     0.78000
C393        C  0.50443300  0.45888097  0.45359463     0.80400
Cd394      Cd  0.52444041  0.40278313  0.38699839     1.37500
O395        O  0.57756450  0.38183136  0.39473199    -0.54600
O396        O  0.52270556  0.42020678  0.45544662    -0.53400
C397        C  0.50681766  0.41289084  0.30859410     0.80400
O398        O  0.99320832  0.46267740  0.40926065    -0.55700
O399        O  0.56563557  0.46232504  0.37711807    -0.54200
O400        O  0.98442037  0.33217573  0.38749497    -0.54200
O401        O  0.51764192  0.37026310  0.32261199    -0.53400
O402        O  0.66119133  0.56258843  0.37991865    -0.54600
C403        C  0.72509220  0.66521974  0.38348090     0.78100
O404        O  0.74562377  0.48759536  0.41848953    -0.55700
C405        C  0.65522183  0.51298862  0.38180431     0.78000
C406        C  0.73465290  0.52585214  0.30641692     0.80400
Cd407      Cd  0.71431480  0.55088406  0.38178366     1.37500
O408        O  0.70019395  0.64664256  0.39065875    -0.54600
O409        O  0.70790849  0.53418816  0.31314897    -0.53400
C410        C  0.73917183  0.50658392  0.45090563     0.80400
O411        O  0.75192623  0.52540134  0.33489435    -0.55700
O412        O  0.74502177  0.63109925  0.37613369    -0.54200
O413        O  0.67665808  0.48018746  0.38383040    -0.54200
O414        O  0.72158545  0.54635074  0.45136950    -0.53400
O415        O  0.92337123  0.54570429  0.61583066    -0.54600
C416        C  0.99986251  0.64933833  0.61398984     0.78100
O417        O  0.01175326  0.50157759  0.66464431    -0.55700
C418        C  0.92006584  0.49482278  0.61632704     0.78000
C419        C  0.99752597  0.49312070  0.54644317     0.80400
Cd420      Cd  0.97779668  0.54015961  0.61648098     1.37500
O421        O  0.97266373  0.64073030  0.60989732    -0.54600
O422        O  0.97886468  0.53128788  0.54682129    -0.53400
C423        C  0.99608855  0.51469219  0.69279774     0.80400
O424        O  0.00753555  0.47743936  0.57843230    -0.55700
O425        O  0.50889245  0.61644553  0.61855264    -0.54200
O426        O  0.94309698  0.46609843  0.61671991    -0.54200
O427        O  0.97170875  0.53726930  0.68542622    -0.53400
O428        O  0.78214709  0.32640264  0.61506947    -0.54600
C429        C  0.83713439  0.47171425  0.61985700     0.78100
O430        O  0.74749580  0.49104650  0.58875805    -0.55700
C431        C  0.75499909  0.31967441  0.62037961     0.78000
C432        C  0.76825787  0.44827881  0.70307998     0.80400
Cd433      Cd  0.77941732  0.42708113  0.62402392     1.37500
O434        O  0.83354250  0.42098455  0.61713657    -0.54600
O435        O  0.79106640  0.42374947  0.69215290    -0.53400
C436        C  0.75523831  0.47476710  0.55601652     0.80400
O437        O  0.75084907  0.46558208  0.67727835    -0.55700
O438        O  0.81438917  0.50051466  0.62411031    -0.54200
O439        O  0.73993436  0.36172439  0.62673991    -0.54200
O440        O  0.77381348  0.43647485  0.55494390    -0.53400
O441        O  0.66426537  0.05755163  0.61974523    -0.54600
C442        C  0.74186874  0.16611257  0.61478357     0.78100
O443        O  0.75594155  0.01701953  0.66130743    -0.55700
C444        C  0.66253541  0.00628746  0.61884906     0.78000
C445        C  0.73088044  0.02483153  0.54033418     0.80400
Cd446      Cd  0.71889160  0.05765332  0.61717006     1.37500
O447        O  0.71464556  0.15901673  0.61951581    -0.54600
O448        O  0.71422986  0.06437619  0.54814899    -0.53400
C449        C  0.74231773  0.02987546  0.69139726     0.80400
O450        O  0.74286363  0.00025328  0.56834223    -0.55700
O451        O  0.75750865  0.12406138  0.61109342    -0.54200
O452        O  0.68642885  0.98009988  0.61776709    -0.54200
O453        O  0.71768433  0.05298976  0.68689981    -0.53400
O454        O  0.57843759  0.92209034  0.61762479    -0.54600
C455        C  0.50365393  0.81196690  0.61136060     0.78100
O456        O  0.99079699  0.95109379  0.65856848    -0.55700
C457        C  0.58024764  0.97325270  0.61886217     0.78000
C458        C  0.50156489  0.96407565  0.54702177     0.80400
Cd459      Cd  0.52357787  0.92199393  0.61718632     1.37500
O460        O  0.53089371  0.82109968  0.61411691    -0.54600
O461        O  0.52004820  0.92559782  0.54788649    -0.53400
C462        C  0.50070877  0.94532212  0.69086332     0.80400
O463        O  0.99759602  0.97536292  0.57617001    -0.55700
O464        O  0.99188452  0.84411951  0.60739925    -0.54200
O465        O  0.55636458  0.99941890  0.61931334    -0.54200
O466        O  0.52585844  0.92447342  0.68662228    -0.53400
O467        O  0.96321980  0.12871969  0.38142579    -0.54600
C468        C  0.91071770  0.98687603  0.36981722     0.78100
O469        O  0.00206195  0.99292099  0.32228103    -0.55700
C470        C  0.99029419  0.13756461  0.37752087     0.78000
C471        C  0.99109819  0.98196683  0.43885238     0.80400
Cd472      Cd  0.96875227  0.02962345  0.37053880     1.37500
O473        O  0.91473723  0.03697013  0.37524098    -0.54600
O474        O  0.97462107  0.02334267  0.43899573    -0.53400
C475        C  0.98783925  0.01315121  0.29447227     0.80400
O476        O  0.99760074  0.96216074  0.40663126    -0.55700
O477        O  0.93318736  0.95785019  0.36430145    -0.54200
O478        O  0.00652574  0.09719420  0.37072286    -0.54200
O479        O  0.96416554  0.03777116  0.30193866    -0.53400
O480        O  0.78707217  0.82137413  0.37141956    -0.54600
C481        C  0.82806884  0.96509190  0.37463514     0.78100
O482        O  0.73068042  0.94437077  0.33016053    -0.55700
C483        C  0.76168389  0.80267857  0.37539977     0.78000
C484        C  0.75584318  0.94856155  0.45067090     0.80400
Cd485      Cd  0.77145149  0.91690460  0.37437074     1.37500
O486        O  0.82507840  0.91444674  0.37120555    -0.54600
O487        O  0.77174652  0.90790280  0.44345476    -0.53400
C488        C  0.74600500  0.94351165  0.30032973     0.80400
O489        O  0.74583641  0.97481217  0.42222695    -0.55700
O490        O  0.80492881  0.99317036  0.37779278    -0.54200
O491        O  0.74097109  0.83668399  0.37852230    -0.54200
O492        O  0.77293432  0.93326485  0.30504946    -0.53400
O493        O  0.92061301  0.92289392  0.87138747    -0.54600
C494        C  0.99345397  0.81237159  0.87757348     0.78100
O495        O  0.01203802  0.95525444  0.82604981    -0.55700
C496        C  0.91762970  0.97353464  0.86694066     0.78000
C497        C  0.99341847  0.97454871  0.94053071     0.80400
Cd498      Cd  0.97494687  0.92435417  0.87069322     1.37500
O499        O  0.96658280  0.82476060  0.87348613    -0.54600
O500        O  0.97455734  0.93764784  0.93972246    -0.53400
C501        C  0.99723172  0.94419208  0.79632538     0.80400
O502        O  0.00423949  0.98781895  0.90897614    -0.55700
O503        O  0.50619637  0.86067012  0.88598161    -0.54200
O504        O  0.94080156  0.00021681  0.86372960    -0.54200
O505        O  0.97180314  0.92622025  0.80107731    -0.53400
O506        O  0.83290748  0.05540320  0.87002129    -0.54600
C507        C  0.76637025  0.17280042  0.87308043     0.78100
O508        O  0.73838351  0.02822033  0.83018761    -0.55700
C509        C  0.83510528  0.00426205  0.86978172     0.78000
C510        C  0.76307327  0.02765529  0.95038392     0.80400
Cd511      Cd  0.77883992  0.05791703  0.87356070     1.37500
O512        O  0.79242041  0.15483083  0.87200462    -0.54600
O513        O  0.78110757  0.06435486  0.94353891    -0.53400
C514        C  0.75299808  0.03208366  0.79989472     0.80400
O515        O  0.75166059  0.00429403  0.92156348    -0.55700
O516        O  0.74645041  0.13799765  0.87414556    -0.54200
O517        O  0.81148559  0.97840805  0.87098208    -0.54200
O518        O  0.77954020  0.04470331  0.80397632    -0.53400
O519        O  0.52784336  0.16169643  0.11784821    -0.54600
C520        C  0.57704883  0.01079476  0.11963063     0.78100
O521        O  0.48239900  0.02702876  0.15997943    -0.55700
C522        C  0.50090598  0.17288611  0.11272369     0.78000
C523        C  0.50107682  0.01698258  0.04655299     0.80400
Cd524      Cd  0.52010937  0.06152166  0.11760074     1.37500
O525        O  0.57443592  0.06186011  0.11788536    -0.54600
O526        O  0.52066272  0.05257328  0.04811414    -0.53400
C527        C  0.49664249  0.03589748  0.19050098     0.80400
O528        O  0.98848824  0.00172018  0.07698326    -0.55700
O529        O  0.55368081  0.98431713  0.12093948    -0.54200
O530        O  0.99132719  0.14116378  0.10373121    -0.54200
O531        O  0.52201925  0.05486107  0.18724226    -0.53400
O532        O  0.66180427  0.92832248  0.11774613    -0.54600
C533        C  0.73457179  0.81576659  0.11324260     0.78100
O534        O  0.74275472  0.98263845  0.06792652    -0.55700
C535        C  0.65941735  0.97948291  0.11690145     0.78000
C536        C  0.73712675  0.95227005  0.19146099     0.80400
Cd537      Cd  0.71586629  0.92757699  0.11518040     1.37500
O538        O  0.70753744  0.82825674  0.11261072    -0.54600
O539        O  0.71259660  0.93073149  0.18515004    -0.53400
C540        C  0.73138717  0.95938996  0.03896637     0.80400
O541        O  0.75157177  0.96533635  0.16235073    -0.55700
O542        O  0.75229776  0.85443211  0.11450926    -0.54200
O543        O  0.68288194  0.00572070  0.11534225    -0.54200
O544        O  0.71355096  0.92220147  0.04553191    -0.53400
C545        C  0.60557308  0.98228066  0.11988429    -0.13200
C546        C  0.63097522  0.00824573  0.11753966    -0.28400
H547        H  0.60556465  0.93852083  0.12157596     0.15800
H548        H  0.63100444  0.05199862  0.11583887     0.16400
C549        C  0.75626397  0.01368758  0.99026763    -0.13200
C550        C  0.73807464  0.97381439  0.99914718    -0.28400
H551        H  0.76676973  0.03674492  0.01295563     0.15800
H552        H  0.72759591  0.95075007  0.97643869     0.16400
C553        C  0.00253761  0.00093610  0.97632846    -0.13200
C554        C  0.49108290  0.99302402  0.01041237    -0.28400
H555        H  0.51815669  0.03885360  0.97505848     0.15800
H556        H  0.97243059  0.96049681  0.01065906     0.16400
C557        C  0.88892697  0.00147695  0.86599169    -0.13200
C558        C  0.86355735  0.97536604  0.86869395    -0.28400
H559        H  0.88878884  0.04517073  0.86363680     0.15800
H560        H  0.86360211  0.93164396  0.87070787     0.16400
C561        C  0.73281984  0.95073964  0.26184357    -0.13200
C562        C  0.74913257  0.95856900  0.23068737    -0.28400
H563        H  0.70936193  0.94559161  0.25873774     0.15800
H564        H  0.77241140  0.96572018  0.23393737     0.16400
C565        C  0.98274993  0.02693580  0.22564453    -0.13200
C566        C  0.99919186  0.01098194  0.25557473    -0.28400
H567        H  0.95961469  0.03582475  0.22903392     0.15800
H568        H  0.02202358  0.99982090  0.25182377     0.16400
C569        C  0.85692657  0.99087413  0.37489225    -0.13200
C570        C  0.88161839  0.96215667  0.36988133    -0.28400
H571        H  0.85782408  0.03429337  0.37898248     0.15800
H572        H  0.88058073  0.91877589  0.36557930     0.16400
C573        C  0.48799958  0.95246335  0.72873633    -0.13200
C574        C  0.00972847  0.94907402  0.75818628    -0.28400
H575        H  0.96923730  0.95175731  0.72871944     0.15800
H576        H  0.03338698  0.94918303  0.75597955     0.16400
C577        C  0.00226845  0.95806986  0.47447994    -0.13200
C578        C  0.99457643  0.97848446  0.50849488    -0.28400
H579        H  0.51345316  0.93252204  0.47528461     0.15800
H580        H  0.97959273  0.01275518  0.51010346     0.16400
C581        C  0.75529965  0.02148975  0.72980094    -0.13200
C582        C  0.73931880  0.02583001  0.76167465    -0.28400
H583        H  0.77884058  0.01575729  0.73200896     0.15800
H584        H  0.71566044  0.02925843  0.75947401     0.16400
C585        C  0.73561528  0.00906203  0.50021900    -0.13200
C586        C  0.75018074  0.96388947  0.49062929    -0.28400
H587        H  0.72663828  0.03514062  0.47806272     0.15800
H588        H  0.75899786  0.93773089  0.51284862     0.16400
C589        C  0.60836027  0.00236231  0.61966557    -0.13200
C590        C  0.63445550  0.97707296  0.61879705    -0.28400
H591        H  0.60743817  0.04617476  0.62075819     0.15800
H592        H  0.63538694  0.93325893  0.61764369     0.16400
C593        C  0.75563632  0.21992007  0.61373053    -0.13200
C594        C  0.74084532  0.26618297  0.61977641    -0.28400
H595        H  0.77897071  0.22120899  0.60858514     0.15800
H596        H  0.71754898  0.26494713  0.62518062     0.16400
C597        C  0.01275334  0.70387420  0.61391858    -0.13200
C598        C  0.99652934  0.74882046  0.60934267    -0.28400
H599        H  0.53061442  0.71403799  0.61442239     0.15800
H600        H  0.97305437  0.74549574  0.60512339     0.16400
C601        C  0.89113208  0.46896011  0.61658486    -0.13200
C602        C  0.86607290  0.49741121  0.61843889    -0.28400
H603        H  0.89054172  0.42515390  0.61586795     0.19000
H604        H  0.86671322  0.54119600  0.61968603     0.16400
C605        C  0.73029270  0.72372375  0.38344550    -0.13200
C606        C  0.75668747  0.74411595  0.37620601    -0.28400
H607        H  0.71190638  0.75059413  0.38924457     0.15800
H608        H  0.77515285  0.71725267  0.37082861     0.16400
C609        C  0.75149798  0.48289215  0.48613064    -0.13200
C610        C  0.74314815  0.49944400  0.52095021    -0.28400
H611        H  0.76749673  0.45037426  0.48326331     0.15800
H612        H  0.72700084  0.53170028  0.52385708     0.16400
C613        C  0.00311955  0.19165837  0.38003771    -0.13200
C614        C  0.98746809  0.23621077  0.38814481    -0.28400
H615        H  0.52335669  0.20360833  0.39052067     0.15800
H616        H  0.96427904  0.23333947  0.39382255     0.16400
C617        C  0.49417198  0.48709401  0.48803832    -0.13200
C618        C  0.00713409  0.46733443  0.51077133    -0.28400
H619        H  0.97806985  0.51035518  0.47438173     0.15800
H620        H  0.52046733  0.44235327  0.52689084     0.16400
C621        C  0.61674537  0.44383735  0.38600596    -0.13200
C622        C  0.62460308  0.49543884  0.38139166    -0.28400
H623        H  0.63325625  0.41258846  0.39071317     0.15800
H624        H  0.60788200  0.52656406  0.37757225     0.16400
C625        C  0.73210618  0.25092493  0.87437816    -0.13200
C626        C  0.75971007  0.23137334  0.87330794    -0.28400
H627        H  0.71387277  0.22330548  0.87477597     0.15800
H628        H  0.77794408  0.25897548  0.87274524     0.16400
C629        C  0.73469340  0.45749307  0.75667853    -0.13200
C630        C  0.76214672  0.45368165  0.74407094    -0.28400
H631        H  0.71661837  0.46000425  0.73629077     0.15800
H632        H  0.78006525  0.44691385  0.76421469     0.16400
C633        C  0.98687769  0.71330466  0.87803456    -0.13200
C634        C  0.00453547  0.75605922  0.87956836    -0.28400
H635        H  0.46024156  0.72736850  0.87788557     0.15800
H636        H  0.02802943  0.74973310  0.88184261     0.16400
C637        C  0.00651380  0.50725505  0.73229549    -0.13200
C638        C  0.49205011  0.51681817  0.76719892    -0.28400
H639        H  0.02995836  0.50439035  0.73747983     0.15800
H640        H  0.96459441  0.50931435  0.75648403     0.16400
C641        C  0.62845050  0.50735973  0.88075629    -0.13200
C642        C  0.60314681  0.48102004  0.88255231    -0.28400
H643        H  0.62846086  0.55116118  0.88019489     0.15800
H644        H  0.60328693  0.43719145  0.88261642     0.16400
C645        C  0.72791174  0.71671985  0.11174272    -0.13200
C646        C  0.74562336  0.75940233  0.11316169    -0.28400
H647        H  0.70441243  0.72305804  0.10956279     0.15800
H648        H  0.76911998  0.75298474  0.11526213     0.16400
C649        C  0.72737943  0.51949982  0.23688295    -0.13200
C650        C  0.74555685  0.52054782  0.26729343    -0.28400
H651        H  0.70395238  0.51620691  0.24071525     0.15800
H652        H  0.76903705  0.52210821  0.26328201     0.16400
C653        C  0.73155909  0.47465117  0.01548376    -0.13200
C654        C  0.74433163  0.48744501  0.98247929    -0.28400
H655        H  0.71423348  0.44510206  0.01578665     0.15800
H656        H  0.76166282  0.51698005  0.98221718     0.16400
C657        C  0.00532438  0.23366504  0.11102812    -0.13200
C658        C  0.97801217  0.25406568  0.10686923    -0.28400
H659        H  0.02353395  0.26052659  0.11631549     0.15800
H660        H  0.52881310  0.26841990  0.11861902     0.16400
C661        C  0.98697749  0.44955870  0.23643559    -0.13200
C662        C  0.49695711  0.41290710  0.26862583    -0.28400
H663        H  0.99156829  0.48942518  0.24795865     0.15800
H664        H  0.98943579  0.36567239  0.24425030     0.16400
C665        C  0.99459938  0.48862033  0.01609330    -0.13200
C666        C  0.98365560  0.47609560  0.98141716    -0.28400
H667        H  0.01284286  0.51602892  0.01888059     0.15800
H668        H  0.96568898  0.44805508  0.97864515     0.16400
C669        C  0.86981488  0.50122134  0.12276875    -0.13200
C670        C  0.84478293  0.47380215  0.12390104    -0.28400
H671        H  0.86918273  0.54504554  0.12294967     0.15800
H672        H  0.84543025  0.42997922  0.12418457     0.16400
loop_ 
_geom_bond_atom_site_label_1 
_geom_bond_atom_site_label_2 
_geom_bond_distance 
_geom_bond_site_symmetry_2 
_ccdc_geom_bond_type 
O1            C4   1.271       .  A
O1           Cd6   2.479       .  S
C2           O11   1.263       .  A
C2            O7   1.270       .  A
C2          C333   1.477       .  S
O3            C9   1.268       .  A
O3           Cd6   2.494       .  S
C4           O12   1.264       .  A
C4          C322   1.479       .  S
C5           O10   1.268       .  A
C5            O8   1.266       .  A
C5          C329   1.473       .  S
Cd6          O13   2.415       .  S
Cd6          O12   2.459       .  S
Cd6          O11   2.441       .  S
Cd6           O7   2.496       .  S
Cd6          O10   2.465       .  S
Cd6           O8   2.434       .  S
C9           O13   1.265       .  A
C9          C325   1.474       .  S
O14          C17   1.271       .  A
O14         Cd19   2.505       .  S
C15          O24   1.265       .  A
C15          O20   1.271       .  A
C15         C334   1.479       .  S
O16          C22   1.268       .  A
O16         Cd19   2.473       .  S
C17          O25   1.262       .  A
C17         C309   1.481       .  S
C18          O23   1.268       .  A
C18          O21   1.265       .  A
C18         C317   1.477       .  S
Cd19         O26   2.461       .  S
Cd19         O25   2.457       .  S
Cd19         O24   2.456       .  S
Cd19         O20   2.487       .  S
Cd19         O23   2.479       .  S
Cd19         O21   2.453       .  S
C22          O26   1.266       .  A
C22         C313   1.475       .  S
O27          C30   1.269   1_455  A
O27         Cd32   2.509       .  S
C28          O37   1.264       .  A
C28          O33   1.271       .  A
C28         C306   1.477       .  S
O29         C371   1.267       .  A
O29        Cd368   2.458       .  S
C30         O374   1.262       .  A
C30         C633   1.481       .  S
C31          O34   1.265   1_655  A
C31         O372   1.265       .  A
C31         C302   1.470       .  S
Cd32         O39   2.457       .  S
Cd32         O37   2.447       .  S
Cd32         O33   2.487       .  S
Cd32         O34   2.445       .  S
Cd32        O365   2.462   1_455  S
Cd32        O374   2.459   1_455  S
Cd32        O372   2.469   1_455  S
C35          O39   1.266   1_655  A
C35         O365   1.266       .  A
C35         C666   1.472       .  S
O36         C367   1.267       .  A
O36        Cd368   2.489       .  S
O38         C366   1.265       .  A
O38        Cd368   2.453       .  S
O40          C43   1.273       .  A
O40         Cd45   2.481       .  S
C41          O50   1.264       .  A
C41          O46   1.271       .  A
C41         C289   1.480       .  S
O42          C48   1.272       .  A
O42         Cd45   2.500       .  S
C43          O51   1.266       .  A
C43         C305   1.477       .  S
C44          O49   1.271       .  A
C44          O47   1.265       .  A
C44         C318   1.478       .  S
Cd45         O52   2.439       .  S
Cd45         O51   2.437       .  S
Cd45         O50   2.453       .  S
Cd45         O46   2.493       .  S
Cd45         O49   2.487       .  S
Cd45         O47   2.446       .  S
C48          O52   1.263       .  A
C48         C293   1.477       .  S
O53          C56   1.270       .  A
O53         Cd58   2.462       .  S
C54          O63   1.265       .  A
C54          O59   1.267       .  A
C54         C285   1.475       .  S
O55          C61   1.269   1_655  A
O55         Cd58   2.505   1_655  S
C56         O400   1.265   1_455  A
C56         C614   1.474   1_455  S
C57          O60   1.265       .  A
C57         O398   1.268   1_455  A
C57         C281   1.474   1_455  S
Cd58         O65   2.412       .  S
Cd58         O63   2.436       .  S
Cd58         O59   2.484       .  S
Cd58         O60   2.431       .  S
Cd58        O400   2.448   1_455  S
Cd58        O398   2.477   1_455  S
C61          O65   1.261       .  A
C61         C326   1.467   1_455  S
O62         C393   1.268       .  A
O62        Cd394   2.468       .  S
O64         C392   1.266       .  A
O64        Cd394   2.460       .  S
O66          C69   1.267       .  A
O66         Cd71   2.448       .  S
C67          O76   1.265       .  A
C67          O72   1.266       .  A
C67         C269   1.477       .  S
O68          C74   1.269       .  A
O68         Cd71   2.473       .  S
C69          O77   1.267       .  A
C69         C286   1.471       .  S
C70          O75   1.266       .  A
C70          O73   1.264       .  A
C70         C314   1.476       .  S
Cd71         O78   2.453       .  S
Cd71         O77   2.463       .  S
Cd71         O76   2.476       .  S
Cd71         O72   2.474       .  S
Cd71         O75   2.489       .  S
Cd71         O73   2.456       .  S
C74          O78   1.262       .  A
C74         C273   1.475       .  S
O79          C82   1.272       .  A
O79         Cd84   2.501       .  S
C80          O85   1.274       .  A
C80         O425   1.265       .  A
C80         C261   1.480       .  S
O81          C87   1.271       .  A
O81         Cd84   2.486       .  S
C82          O90   1.263       .  A
C82         C265   1.476       .  S
C83          O88   1.270       .  A
C83          O86   1.266       .  A
C83         C282   1.472       .  S
Cd84         O91   2.402       .  S
Cd84         O90   2.425       .  S
Cd84         O85   2.478       .  S
Cd84         O88   2.468       .  S
Cd84         O86   2.416       .  S
Cd84        O425   2.440       .  S
C87          O91   1.263       .  A
C87         C301   1.463       .  S
O89         C416   1.262   1_455  A
O89        Cd420   2.450   1_455  S
O92          C95   1.273       .  A
O92         Cd97   2.499       .  S
C93         O102   1.266       .  A
C93          O98   1.274       .  A
C93         C266   1.478       .  S
O94         C100   1.274       .  A
O94         Cd97   2.482       .  S
C95         O103   1.265       .  A
C95         C258   1.483       .  S
C96         O101   1.273       .  A
C96          O99   1.264       .  A
C96         C294   1.477       .  S
Cd97        O104   2.420       .  S
Cd97        O103   2.449       .  S
Cd97        O102   2.438       .  S
Cd97         O98   2.473       .  S
Cd97        O101   2.497       .  S
Cd97         O99   2.430       .  S
C100        O104   1.265       .  A
C100        C274   1.473       .  S
O105        C108   1.273   1_545  A
O105       Cd110   2.498       .  S
C106        O115   1.262       .  A
C106        O111   1.272       .  A
C106        C257   1.482       .  S
O107        C113   1.267       .  A
O107       Cd110   2.472       .  S
C108        O116   1.264       .  A
C108        C254   1.481       .  S
C109        O114   1.268   1_545  A
C109        O112   1.266       .  A
C109        C249   1.473   1_545  S
Cd110       O117   2.449       .  S
Cd110       O116   2.443   1_545  S
Cd110       O115   2.444       .  S
Cd110       O111   2.527       .  S
Cd110       O114   2.461   1_545  S
Cd110       O112   2.446       .  S
C113        O117   1.266       .  A
C113        C245   1.473       .  S
O118        C121   1.272       .  A
O118       Cd123   2.508       .  S
C119        O124   1.272       .  A
C119        O464   1.261   1_455  A
C119        C598   1.481   1_455  S
O120        C462   1.265       .  A
O120       Cd459   2.456       .  S
C121        O129   1.263       .  A
C121        C253   1.481       .  S
C122        O125   1.267       .  A
C122        O463   1.266   1_455  A
C122        C578   1.466   1_455  S
Cd123       O130   2.444       .  S
Cd123       O129   2.449       .  S
Cd123       O124   2.525       .  S
Cd123       O125   2.439       .  S
Cd123       O456   2.465   1_455  S
Cd123       O464   2.434   1_455  S
Cd123       O463   2.439   1_455  S
C126        O130   1.265       .  A
C126        O456   1.264   1_455  A
C126        C237   1.469   1_455  S
O127        C458   1.266       .  A
O127       Cd459   2.441       .  S
O128        C455   1.260       .  A
O128       Cd459   2.427       .  S
O131        C134   1.270       .  A
O131       Cd136   2.505       .  S
C132        O141   1.264       .  A
C132        O137   1.270   1_565  A
C132        C234   1.473       .  S
O133        C139   1.265       .  A
O133       Cd136   2.459       .  S
C134        O142   1.261       .  A
C134        C277   1.471       .  S
C135        O140   1.267       .  A
C135        O138   1.265   1_565  A
C135        C241   1.468       .  S
Cd136       O143   2.448       .  S
Cd136       O142   2.416       .  S
Cd136       O141   2.431   1_545  S
Cd136       O137   2.483       .  S
Cd136       O140   2.461   1_545  S
Cd136       O138   2.415       .  S
C139        O143   1.266       .  A
C139        C230   1.469       .  S
O144        C147   1.266       .  A
O144       Cd149   2.488       .  S
C145        O154   1.266   1_565  A
C145        O150   1.269       .  A
C145        C233   1.476   1_565  S
O146        C152   1.266       .  A
O146       Cd149   2.469       .  S
C147        O155   1.264       .  A
C147        C270   1.478       .  S
C148        O153   1.266       .  A
C148        O151   1.264       .  A
C148        C250   1.473       .  S
Cd149       O156   2.462       .  S
Cd149       O155   2.465       .  S
Cd149       O154   2.459   1_565  S
Cd149       O150   2.457       .  S
Cd149       O153   2.477       .  S
Cd149       O151   2.447       .  S
C152        O156   1.264       .  A
C152        C225   1.473       .  S
O157        C160   1.271       .  A
O157       Cd162   2.493       .  S
C158        O163   1.270       .  A
C158        O503   1.262       .  A
C158        C298   1.479       .  S
O159        C165   1.264       .  A
O159       Cd162   2.451       .  S
C160        O168   1.264   1_565  A
C160        C221   1.479   1_565  S
C161        O166   1.267       .  A
C161        O164   1.266       .  A
C161        C217   1.468   1_565  S
Cd162       O169   2.442       .  S
Cd162       O168   2.452   1_565  S
Cd162       O163   2.504       .  S
Cd162       O166   2.460       .  S
Cd162       O164   2.414       .  S
Cd162       O503   2.448       .  S
C165        O169   1.266       .  A
C165        C238   1.466       .  S
O167        C494   1.262   1_455  A
O167       Cd498   2.455   1_455  S
O170        C173   1.273       .  A
O170       Cd175   2.491       .  S
C171        O180   1.263       .  A
C171        O176   1.272       .  A
C171        C290   1.479       .  S
O172        C178   1.268       .  A
O172       Cd175   2.480       .  S
C173        O181   1.265   1_545  A
C173        C222   1.478   1_545  S
C174        O179   1.271   1_545  A
C174        O177   1.265       .  A
C174        C213   1.475       .  S
Cd175       O182   2.444       .  S
Cd175       O181   2.437   1_545  S
Cd175       O180   2.442       .  S
Cd175       O176   2.507       .  S
Cd175       O179   2.479   1_545  S
Cd175       O177   2.442       .  S
C178        O182   1.265       .  A
C178        C246   1.474       .  S
O183        C186   1.268       .  A
O183       Cd188   2.501       .  S
C184        O193   1.264       .  A
C184        O189   1.271   1_565  A
C184        C209   1.478       .  S
O185        C191   1.264       .  A
O185       Cd188   2.461   1_655  S
C186        O530   1.264   1_455  A
C186        C657   1.481       .  S
C187        O190   1.266   1_655  A
C187        O528   1.266       .  A
C187        C218   1.468   1_545  S
Cd188       O195   2.439       .  S
Cd188       O193   2.455   1_545  S
Cd188       O189   2.473       .  S
Cd188       O190   2.432       .  S
Cd188       O530   2.460   1_455  S
Cd188       O528   2.448   1_455  S
C191        O195   1.264   1_655  A
C191        C565   1.466       .  S
O192        C523   1.266       .  A
O192       Cd524   2.435       .  S
O194        C522   1.261       .  A
O194       Cd524   2.433       .  S
O196        C199   1.272       .  A
O196       Cd201   2.499       .  S
C197        O206   1.263       .  A
C197        O202   1.272       .  A
C197        C310   1.479       .  S
O198        C204   1.270       .  A
O198       Cd201   2.470       .  S
C199        O207   1.264       .  A
C199        C210   1.475       .  S
C200        O205   1.268       .  A
C200        O203   1.265       .  A
C200        C226   1.475       .  S
Cd201       O208   2.453       .  S
Cd201       O207   2.422       .  S
Cd201       O206   2.437       .  S
Cd201       O202   2.507       .  S
Cd201       O205   2.486       .  S
Cd201       O203   2.434       .  S
C204        O208   1.265       .  A
C204        C214   1.476   1_554  S
C209        C210   1.340       .  D
C209        H211   1.086       .  S
C210        H212   1.086   1_565  S
C213        C214   1.341   1_545  D
C213        H215   1.086   1_556  S
C214        H216   1.086       .  S
C217        C554   1.342   1_546  D
C217        H555   1.086       .  S
C218        C553   1.342   1_664  D
C218        H556   1.086       .  S
H219        C553   1.086       .  S
H220        C554   1.086       .  S
C221        C222   1.341   1_545  D
C221        H223   1.086       .  S
C222        H224   1.086       .  S
C225        C226   1.345       .  D
C225        H227   1.087       .  S
C226        H228   1.087       .  S
C229        C527   1.469       .  S
C229        C230   1.340       .  D
C229        H231   1.087       .  S
C230        H232   1.087       .  S
C233        C234   1.341   1_545  D
C233        H235   1.086       .  S
C234        H236   1.086       .  S
C237        C574   1.341   1_655  D
C237        H575   1.087       .  S
C238        C573   1.339       .  D
C238        H240   1.087       .  S
H239        C573   1.087       .  S
C241        C242   1.342       .  D
C241        H579   1.086       .  S
C242        C458   1.466       .  S
C242        H244   1.086   1_565  S
H243        C577   1.086       .  S
C245        C246   1.344       .  D
C245        H247   1.087       .  S
C246        H248   1.087       .  S
C249        C250   1.345       .  D
C249        H251   1.087       .  S
C250        H252   1.087   1_565  S
C253        C254   1.341       .  D
C253        H255   1.087   1_565  S
C254        H256   1.087       .  S
C257        C258   1.341       .  D
C257        H259   1.087       .  S
C258        H260   1.087       .  S
C261        C262   1.339       .  D
C261        H599   1.086       .  S
C262        C455   1.477       .  S
C262        H264   1.087       .  S
H263        C597   1.087       .  S
C265        C266   1.339       .  D
C265        H267   1.087       .  S
C266        H268   1.086       .  S
C269        C270   1.346       .  D
C269        H271   1.087       .  S
C270        H272   1.087       .  S
C273        C274   1.339       .  D
C273        H275   1.087       .  S
C274        H276   1.087       .  S
C277        C278   1.340       .  D
C277        H615   1.087       .  S
C278        C392   1.476       .  S
C278        H280   1.086       .  S
H279        C613   1.087       .  S
C281        C618   1.345   1_655  D
C281        H619   1.086       .  S
C282        C617   1.346       .  D
C282        H620   1.087       .  S
H283        C617   1.087       .  S
H284        C618   1.087       .  S
C285        C286   1.345       .  D
C285        H287   1.087       .  S
C286        H288   1.087       .  S
C289        C290   1.341       .  D
C289        H291   1.087       .  S
C290        H292   1.087       .  S
C293        C294   1.340       .  D
C293        H295   1.087       .  S
C294        H296   1.087       .  S
C297        C366   1.480       .  S
C297        C298   1.341       .  D
C297        H635   1.086       .  S
C298        H300   1.087       .  S
H299        C633   1.086       .  S
C301        C638   1.339       .  D
C301        H303   1.088       .  S
C302        C637   1.342   1_655  D
C302        H640   1.087       .  S
H304        C638   1.087       .  S
C305        C306   1.341       .  D
C305        H307   1.086       .  S
C306        H308   1.086       .  S
C309        C310   1.341       .  D
C309        H311   1.087       .  S
C310        H312   1.086       .  S
C313        C314   1.345       .  D
C313        H315   1.087       .  S
C314        H316   1.087       .  S
C317        C318   1.348   1_554  D
C317        H319   1.087       .  S
C318        H320   1.087       .  S
C321        C522   1.477       .  S
C321        C322   1.340       .  D
C321        H323   1.087       .  S
C322        H660   1.087       .  S
H324        C658   1.087       .  S
C325        C662   1.340       .  D
C325        H327   1.087       .  S
C326        C661   1.341       .  D
C326        H664   1.088       .  S
H328        C662   1.088       .  S
C329        C330   1.345   1_554  D
C329        H331   1.086       .  S
C330        C371   1.472       .  S
C330        H332   1.087       .  S
C333        C334   1.341       .  D
C333        H335   1.086       .  S
C334        H336   1.086       .  S
O337        C340   1.269       .  A
O337       Cd342   2.473       .  S
C338        O347   1.262       .  A
C338        O343   1.268       .  A
C338        C669   1.478       .  S
O339        C345   1.266       .  A
O339       Cd342   2.504       .  S
C340        O348   1.267       .  A
C340        C658   1.480       .  S
C341        O346   1.266       .  A
C341        O344   1.265       .  A
C341        C665   1.473       .  S
Cd342       O349   2.422       .  S
Cd342       O348   2.475       .  S
Cd342       O347   2.455       .  S
Cd342       O343   2.500       .  S
Cd342       O346   2.472       .  S
Cd342       O344   2.443       .  S
C345        O349   1.264       .  A
C345        C661   1.475       .  S
O350        C353   1.270       .  A
O350       Cd355   2.499       .  S
C351        O360   1.264       .  A
C351        O356   1.271       .  A
C351        C670   1.478       .  S
O352        C358   1.266       .  A
O352       Cd355   2.472       .  S
C353        O361   1.263       .  A
C353        C645   1.480       .  S
C354        O359   1.268       .  A
C354        O357   1.265       .  A
C354        C653   1.473       .  S
Cd355       O362   2.442       .  S
Cd355       O361   2.459       .  S
Cd355       O360   2.445       .  S
Cd355       O356   2.487       .  S
Cd355       O359   2.469       .  S
Cd355       O357   2.435       .  S
C358        O362   1.265       .  A
C358        C649   1.471       .  S
O363        C366   1.271       .  A
O363       Cd368   2.492       .  S
C364        O373   1.262       .  A
C364        O369   1.271       .  A
C364        C642   1.473       .  S
C367        O370   1.265       .  A
C367        C638   1.471       .  S
Cd368       O375   2.448       .  S
Cd368       O373   2.427       .  S
Cd368       O369   2.499       .  S
Cd368       O370   2.410       .  S
C371        O375   1.266       .  A
O376        C379   1.271       .  A
O376       Cd381   2.463       .  S
C377        O386   1.265       .  A
C377        O382   1.268       .  A
C377        C625   1.479       .  S
O378        C384   1.269       .  A
O378       Cd381   2.488       .  S
C379        O387   1.265       .  A
C379        C641   1.476       .  S
C380        O385   1.268       .  A
C380        O383   1.265       .  A
C380        C654   1.473       .  S
Cd381       O388   2.441       .  S
Cd381       O387   2.448       .  S
Cd381       O386   2.464       .  S
Cd381       O382   2.483       .  S
Cd381       O385   2.474       .  S
Cd381       O383   2.440       .  S
C384        O388   1.263       .  A
C384        C629   1.473       .  S
O389        C392   1.271       .  A
O389       Cd394   2.447       .  S
C390        O399   1.265       .  A
C390        O395   1.267       .  A
C390        C621   1.477       .  S
O391        C397   1.269       .  A
O391       Cd394   2.501       .  S
C393        O396   1.265       .  A
C393        C617   1.471       .  S
Cd394       O401   2.409       .  S
Cd394       O399   2.440       .  S
Cd394       O395   2.491       .  S
Cd394       O396   2.438       .  S
C397        O401   1.261       .  A
C397        C662   1.466       .  S
O402        C405   1.265       .  A
O402       Cd407   2.445       .  S
C403        O412   1.264       .  A
C403        O408   1.264       .  A
C403        C605   1.473       .  S
O404        C410   1.265       .  A
O404       Cd407   2.467       .  S
C405        O413   1.267       .  A
C405        C622   1.473       .  S
C406        O411   1.264       .  A
C406        O409   1.264       .  A
C406        C650   1.471       .  S
Cd407       O414   2.461       .  S
Cd407       O413   2.476       .  S
Cd407       O412   2.461       .  S
Cd407       O408   2.470       .  S
Cd407       O411   2.471       .  S
Cd407       O409   2.453       .  S
C410        O414   1.264       .  A
C410        C609   1.473       .  S
O415        C418   1.272       .  A
O415       Cd420   2.493       .  S
C416        O421   1.272       .  A
C416        C597   1.482   1_655  S
O417        C423   1.267   1_455  A
O417       Cd420   2.467   1_455  S
C418        O426   1.264       .  A
C418        C601   1.479       .  S
C419        O424   1.267   1_655  A
C419        O422   1.266       .  A
C419        C618   1.471   1_655  S
Cd420       O427   2.439       .  S
Cd420       O426   2.443       .  S
Cd420       O421   2.512       .  S
Cd420       O424   2.453   1_655  S
Cd420       O422   2.452       .  S
C423        O427   1.266       .  A
C423        C637   1.470   1_655  S
O428        C431   1.272       .  A
O428       Cd433   2.515       .  S
C429        O438   1.265       .  A
C429        O434   1.273       .  A
C429        C602   1.479       .  S
O430        C436   1.268       .  A
O430       Cd433   2.468       .  S
C431        O439   1.262       .  A
C431        C594   1.483       .  S
C432        O437   1.270       .  A
C432        O435   1.264       .  A
C432        C630   1.473       .  S
Cd433       O440   2.444       .  S
Cd433       O439   2.446       .  S
Cd433       O438   2.440       .  S
Cd433       O434   2.495       .  S
Cd433       O437   2.474       .  S
Cd433       O435   2.442       .  S
C436        O440   1.267       .  A
C436        C610   1.474       .  S
O441        C444   1.274       .  A
O441       Cd446   2.503       .  S
C442        O451   1.264       .  A
C442        O447   1.274       .  A
C442        C593   1.483       .  S
O443        C449   1.270       .  A
O443       Cd446   2.487       .  S
C444        O452   1.265   1_545  A
C444        C590   1.484   1_545  S
C445        O450   1.273       .  A
C445        O448   1.265       .  A
C445        C585   1.476       .  S
Cd446       O453   2.450       .  S
Cd446       O452   2.445   1_545  S
Cd446       O451   2.444       .  S
Cd446       O447   2.518       .  S
Cd446       O450   2.478       .  S
Cd446       O448   2.433       .  S
C449        O453   1.266       .  A
C449        C581   1.479       .  S
O454        C457   1.272       .  A
O454       Cd459   2.511       .  S
C455        O460   1.272       .  A
C457        O465   1.264       .  A
C457        C589   1.483   1_565  S
C458        O461   1.267       .  A
Cd459       O466   2.436       .  S
Cd459       O465   2.452       .  S
Cd459       O460   2.520       .  S
Cd459       O461   2.435       .  S
C462        O466   1.266       .  A
C462        C573   1.466       .  S
O467        C470   1.271       .  A
O467       Cd472   2.493       .  S
C468        O477   1.264       .  A
C468        O473   1.270   1_565  A
C468        C570   1.473       .  S
O469        C475   1.267   1_465  A
O469       Cd472   2.456   1_465  S
C470        O478   1.262   1_655  A
C470        C613   1.472   1_655  S
C471        O476   1.267       .  A
C471        O474   1.265   1_565  A
C471        C577   1.468   1_655  S
Cd472       O479   2.421       .  S
Cd472       O478   2.423   1_655  S
Cd472       O477   2.434   1_545  S
Cd472       O473   2.484       .  S
Cd472       O476   2.462   1_545  S
Cd472       O474   2.417       .  S
C475        O479   1.266       .  A
C475        C566   1.467       .  S
O480        C483   1.267       .  A
O480       Cd485   2.466       .  S
C481        O490   1.265       .  A
C481        O486   1.269       .  A
C481        C569   1.475       .  S
O482        C488   1.268       .  A
O482       Cd485   2.499       .  S
C483        O491   1.266       .  A
C483        C606   1.473       .  S
C484        O489   1.271       .  A
C484        O487   1.262       .  A
C484        C586   1.475       .  S
Cd485       O492   2.469       .  S
Cd485       O491   2.450       .  S
Cd485       O490   2.450       .  S
Cd485       O486   2.459       .  S
Cd485       O489   2.496       .  S
Cd485       O487   2.434       .  S
C488        O492   1.264       .  A
C488        C561   1.481       .  S
O493        C496   1.271       .  A
O493       Cd498   2.488       .  S
C494        O499   1.270       .  A
C494        C634   1.480   1_655  S
O495        C501   1.265   1_455  A
O495       Cd498   2.459   1_455  S
C496        O504   1.264   1_565  A
C496        C557   1.477   1_565  S
C497        O502   1.266   1_655  A
C497        O500   1.266       .  A
C497        C553   1.469   1_665  S
Cd498       O505   2.444       .  S
Cd498       O504   2.440   1_565  S
Cd498       O499   2.506       .  S
Cd498       O502   2.459   1_655  S
Cd498       O500   2.441       .  S
C501        O505   1.265       .  A
C501        C574   1.469   1_655  S
O506        C509   1.270       .  A
O506       Cd511   2.480       .  S
C507        O516   1.265       .  A
C507        O512   1.268       .  A
C507        C626   1.479       .  S
O508        C514   1.268       .  A
O508       Cd511   2.494       .  S
C509        O517   1.265   1_545  A
C509        C558   1.479   1_545  S
C510        O515   1.270       .  A
C510        O513   1.263       .  A
C510        C549   1.482       .  S
Cd511       O518   2.460       .  S
Cd511       O517   2.459   1_545  S
Cd511       O516   2.462       .  S
Cd511       O512   2.490       .  S
Cd511       O515   2.507       .  S
Cd511       O513   2.459       .  S
C514        O518   1.264       .  A
C514        C582   1.479       .  S
O519        C522   1.271       .  A
O519       Cd524   2.513       .  S
C520        O529   1.264   1_545  A
C520        O525   1.272       .  A
C520        C545   1.476   1_545  S
O521        C527   1.264       .  A
O521       Cd524   2.460       .  S
C523        O526   1.266       .  A
C523        C554   1.466   1_545  S
Cd524       O531   2.449       .  S
Cd524       O529   2.441   1_545  S
Cd524       O525   2.487       .  S
Cd524       O526   2.446       .  S
C527        O531   1.266       .  A
O532        C535   1.272       .  A
O532       Cd537   2.477       .  S
C533        O542   1.264       .  A
C533        O538   1.271       .  A
C533        C646   1.479       .  S
O534        C540   1.272       .  A
O534       Cd537   2.502       .  S
C535        O543   1.265   1_565  A
C535        C546   1.476   1_565  S
C536        O541   1.270       .  A
C536        O539   1.266       .  A
C536        C562   1.482       .  S
Cd537       O544   2.446       .  S
Cd537       O543   2.440   1_565  S
Cd537       O542   2.447       .  S
Cd537       O538   2.497       .  S
Cd537       O541   2.494       .  S
Cd537       O539   2.461       .  S
C540        O544   1.264       .  A
C540        C550   1.481   1_554  S
C545        C546   1.340   1_565  D
C545        H547   1.087       .  S
C546        H548   1.086       .  S
C549        C550   1.342   1_545  D
C549        H551   1.087   1_556  S
C550        H552   1.087       .  S
C557        C558   1.342   1_545  D
C557        H559   1.087       .  S
C558        H560   1.086       .  S
C561        C562   1.349       .  D
C561        H563   1.087       .  S
C562        H564   1.087       .  S
C565        C566   1.341       .  D
C565        H567   1.087       .  S
C566        H568   1.087   1_645  S
C569        C570   1.341       .  D
C569        H571   1.086   1_565  S
C570        H572   1.086       .  S
C574        H576   1.087       .  S
C577        C578   1.342   1_455  D
C578        H580   1.086   1_565  S
C581        C582   1.348       .  D
C581        H583   1.087       .  S
C582        H584   1.087       .  S
C585        C586   1.339   1_545  D
C585        H587   1.087       .  S
C586        H588   1.087       .  S
C589        C590   1.342   1_545  D
C589        H591   1.087       .  S
C590        H592   1.087       .  S
C593        C594   1.341       .  D
C593        H595   1.087       .  S
C594        H596   1.087       .  S
C597        C598   1.340   1_455  D
C598        H600   1.087       .  S
C601        C602   1.341       .  D
C601        H603   1.087       .  S
C602        H604   1.087       .  S
C605        C606   1.344       .  D
C605        H607   1.087       .  S
C606        H608   1.087       .  S
C609        C610   1.345       .  D
C609        H611   1.087       .  S
C610        H612   1.087       .  S
C613        C614   1.339   1_455  D
C614        H616   1.086       .  S
C621        C622   1.345       .  D
C621        H623   1.087       .  S
C622        H624   1.087       .  S
C625        C626   1.348       .  D
C625        H627   1.087       .  S
C626        H628   1.087       .  S
C629        C630   1.340       .  D
C629        H631   1.087       .  S
C630        H632   1.087       .  S
C633        C634   1.342   1_655  D
C634        H636   1.086       .  S
C637        H639   1.087       .  S
C641        C642   1.340       .  D
C641        H643   1.086       .  S
C642        H644   1.086       .  S
C645        C646   1.342       .  D
C645        H647   1.087       .  S
C646        H648   1.087       .  S
C649        C650   1.343       .  D
C649        H651   1.087       .  S
C650        H652   1.087       .  S
C653        C654   1.346   1_554  D
C653        H655   1.087       .  S
C654        H656   1.087       .  S
C657        C658   1.349   1_455  D
C657        H659   1.087       .  S
C661        H663   1.087       .  S
C665        C666   1.344   1_554  D
C665        H667   1.086   1_655  S
C666        H668   1.087       .  S
C669        C670   1.341       .  D
C669        H671   1.086       .  S
C670        H672   1.086       .  S
