geometry optimzed in LAMMPS
_audit_creation_date              2020-12-01 
_audit_creation_method            'lammps2cif' 
_symmetry_space_group_name_H-M    'P1' 
_symmetry_Int_Tables_number       1 
_symmetry_cell_setting            triclinic 
loop_ 
_symmetry_equiv_pos_as_xyz 
  x,y,z 
_cell_length_a                    37.90102506 
_cell_length_b                    37.7388798803197 
_cell_length_c                    60.7956127435254 
_cell_angle_alpha                 89.92772969069959 
_cell_angle_beta                  90.00673559550629 
_cell_angle_gamma                 89.99976416029257 
loop_ 
_atom_site_label 
_atom_site_type_symbol 
_atom_site_fract_x 
_atom_site_fract_y 
_atom_site_fract_z 
_atom_site_charge 
C1          C  0.42547154  0.31972149  0.36029304     0.79900
N2          N  0.44130158  0.34839124  0.35088629    -0.78400
C3          C  0.42913913  0.36155098  0.33141829     0.82300
N4          N  0.40092337  0.34620513  0.32149245    -0.78400
C5          C  0.38507080  0.31761118  0.33070730     0.82400
N6          N  0.39752337  0.30436961  0.35000767    -0.80100
C7          C  0.38586361  0.35917923  0.17667634     0.79900
N8          N  0.36747309  0.33400761  0.18783749    -0.78400
C9          C  0.37308008  0.32874300  0.20960711     0.82300
N10         N  0.39671861  0.34923757  0.22042932    -0.78400
C11         C  0.41633057  0.37344490  0.20936146     0.82400
N12         N  0.41063441  0.37872803  0.18748140    -0.80100
C13         C  0.16161796  0.35991730  0.36628562     0.79900
N14         N  0.17943826  0.33401310  0.35537029    -0.78400
C15         C  0.17201949  0.32689989  0.33397676     0.82300
N16         N  0.14743273  0.34655488  0.32327882    -0.78400
C17         C  0.12852527  0.37154108  0.33415258     0.82400
N18         N  0.13587571  0.37840233  0.35563143    -0.80100
C19         C  0.42821230  0.12745785  0.18296422     0.79900
N20         N  0.44528300  0.10065723  0.19347138    -0.78400
C21         C  0.43434718  0.08959381  0.21360097     0.82300
N22         N  0.40628279  0.10541689  0.22328975    -0.78400
C23         C  0.38934026  0.13246650  0.21308420     0.82400
N24         N  0.40020276  0.14335669  0.19286373    -0.80100
N25         N  0.98200658  0.43548857  0.22975707    -0.06500
N26         N  0.97313490  0.41235583  0.21442910    -0.58600
N27         N  0.46087310  0.01668682  0.24574361    -0.06200
N28         N  0.43900634  0.04347603  0.24269943    -0.60700
N29         N  0.98490073  0.01437269  0.22854638    -0.05800
N30         N  0.97977180  0.04057349  0.21445234    -0.58600
N31         N  0.45688662  0.43299595  0.24588854    -0.05400
N32         N  0.43100133  0.41067395  0.24158656    -0.61100
C33         C  0.43974093  0.39698692  0.22179885     0.95700
C34         C  0.45147117  0.05942541  0.22433702     0.95500
N35         N  0.98316413  0.01380543  0.31200276    -0.06700
N36         N  0.97444266  0.03675960  0.32751716    -0.59200
N37         N  0.45835319  0.43262609  0.29827036    -0.04800
N38         N  0.43493366  0.40742064  0.30206701    -0.60400
N39         N  0.98350425  0.43446785  0.31304138    -0.06700
N40         N  0.97784932  0.40844695  0.32714450    -0.59400
N41         N  0.46036905  0.01612129  0.29742405    -0.04400
N42         N  0.43640600  0.04063749  0.30136285    -0.60500
Mn43       Mn  0.45809417  0.47347307  0.27192278     1.18400
C44         C  0.44675369  0.05485860  0.32068104     0.97800
C45         C  0.44673711  0.39168193  0.32070435     0.98400
N46         N  0.06916191  0.01122229  0.22761994    -0.06700
N47         N  0.07957332  0.03232083  0.21143230    -0.63000
N48         N  0.08946827  0.43117962  0.24546787    -0.05500
N49         N  0.11093761  0.40406597  0.24236734    -0.63700
N50         N  0.06516500  0.43195092  0.22998876    -0.06200
N51         N  0.06964713  0.40553430  0.21602428    -0.63300
N52         N  0.09231280  0.01173126  0.24376259    -0.05100
N53         N  0.11841244  0.03357150  0.23913090    -0.64000
Mn54       Mn  0.02536855  0.47429136  0.22902055     1.10700
C55         C  0.11011997  0.04634497  0.21905051     0.99000
C56         C  0.09820824  0.38832868  0.22399918     0.99100
N57         N  0.06722553  0.43380203  0.31355855    -0.06200
N58         N  0.07597480  0.41119817  0.32932656    -0.61600
N59         N  0.09104687  0.01327510  0.29607121    -0.05500
N60         N  0.11413421  0.03880278  0.29973538    -0.58300
N61         N  0.06663441  0.01329186  0.31148252    -0.06900
N62         N  0.07252996  0.03862852  0.32592458    -0.61200
N63         N  0.09050405  0.43260033  0.29751355    -0.05800
N64         N  0.11500165  0.40874590  0.30178472    -0.58400
Mn65       Mn  0.02529153  0.47462174  0.31372263     1.20200
Mn66       Mn  0.09194894  0.47270549  0.27124348     1.10100
Cl67       Cl  0.02537714  0.47447368  0.27137002    -0.86300
C68         C  0.10553559  0.39541656  0.32153574     0.96000
C69         C  0.10213115  0.05428862  0.31836750     0.95800
C70         C  0.11854103  0.31713776  0.18387524     0.79900
N71         N  0.10263438  0.34525906  0.19377808    -0.78400
C72         C  0.11444521  0.35725379  0.21354713     0.82300
N73         N  0.14220536  0.34102247  0.22340418    -0.78400
C74         C  0.15801379  0.31278037  0.21376553     0.82400
N75         N  0.14623322  0.30098256  0.19398286    -0.80100
C76         C  0.39528563  0.09211109  0.36668841     0.79900
N77         N  0.41993606  0.07352319  0.35524975    -0.78400
C78         C  0.42437101  0.07893952  0.33336988     0.82300
N79         N  0.40329645  0.10234216  0.32270454    -0.78400
C80         C  0.37940540  0.12200545  0.33396962     0.82400
N81         N  0.37521287  0.11668212  0.35599206    -0.80100
C82         C  0.12121524  0.12586883  0.35801185     0.79900
N83         N  0.14932751  0.14164459  0.34823928    -0.78400
C84         C  0.16263546  0.12857415  0.32919806     0.82300
N85         N  0.14749639  0.09992435  0.31969285    -0.78400
C86         C  0.11914069  0.08428939  0.32918917     0.82400
N87         N  0.10613973  0.09710153  0.34844332    -0.80100
C88         C  0.16556378  0.08358273  0.17425211     0.79900
N89         N  0.18399809  0.10858465  0.18565184    -0.78400
C90         C  0.17798898  0.11364019  0.20747616     0.82300
N91         N  0.15370059  0.09341482  0.21792900    -0.78400
C92         C  0.13401984  0.06956505  0.20665028     0.82400
N93         N  0.14031574  0.06423309  0.18484841    -0.80100
N94         N  0.31383439  0.26500536  0.31300993    -0.06500
N95         N  0.33930679  0.27086953  0.32733137    -0.58600
N96         N  0.23223958  0.28820650  0.29747869    -0.06200
N97         N  0.20855661  0.31288758  0.30161436    -0.60700
N98         N  0.23327103  0.26480714  0.31351102    -0.05800
N99         N  0.21071775  0.27367042  0.32919726    -0.58600
N100        N  0.31357483  0.28960578  0.29763863    -0.05400
N101        N  0.33913016  0.31278433  0.30121530    -0.61100
C102        C  0.35491754  0.30063694  0.31977196     0.95700
C103        C  0.19512059  0.30339065  0.32130105     0.95500
N104        N  0.23160341  0.26237205  0.23038017    -0.06700
N105        N  0.20528881  0.26709713  0.21643716    -0.59200
N106        N  0.31232781  0.28970609  0.24559266    -0.04800
N107        N  0.33553176  0.31489502  0.24156819    -0.60400
N108        N  0.31220620  0.26621624  0.22962512    -0.06700
N109        N  0.33497557  0.27537121  0.21415657    -0.59400
N110        N  0.23115384  0.28689580  0.24577948    -0.04400
N111        N  0.20435645  0.30869901  0.24267336    -0.60500
Mn112      Mn  0.27236926  0.28949122  0.27158032     1.18400
C113        C  0.18850165  0.29599032  0.22437136     0.97800
C114        C  0.34962698  0.30546939  0.22206413     0.98400
N115        N  0.23451791  0.18076535  0.31269657    -0.06700
N116        N  0.20854590  0.17510606  0.32668215    -0.63000
N117        N  0.31620702  0.15752545  0.29772495    -0.05500
N118        N  0.34058230  0.13351431  0.30199160    -0.63700
N119        N  0.31497393  0.18120216  0.31358783    -0.06200
N120        N  0.33809121  0.17332185  0.32917622    -0.63300
N121        N  0.23503973  0.15614435  0.29735865    -0.05100
N122        N  0.20924638  0.13322321  0.30058075    -0.64000
Mn123      Mn  0.27410536  0.22290385  0.31377710     1.10700
C124        C  0.19304499  0.14548849  0.31887428     0.99000
C125        C  0.35414459  0.14376296  0.32153792     0.99100
N126        N  0.31586071  0.18247364  0.23004462    -0.06200
N127        N  0.34169910  0.17766849  0.21579411    -0.61600
N128        N  0.23582730  0.15441965  0.24510723    -0.05500
N129        N  0.21409242  0.12817883  0.24032307    -0.58300
N130        N  0.23564945  0.17821844  0.22925953    -0.06900
N131        N  0.21430989  0.16824871  0.21318321    -0.61200
N132        N  0.31685129  0.15812643  0.24557033    -0.05800
N133        N  0.34355625  0.13633407  0.24226008    -0.58400
Mn134      Mn  0.27375692  0.22239876  0.22923082     1.20200
Mn135      Mn  0.27598982  0.15560913  0.27148330     1.10100
Cl136      Cl  0.27402502  0.22253830  0.27150681    -0.86300
C137        C  0.35877504  0.14891270  0.22369437     0.96000
C138        C  0.20070877  0.13725175  0.22047737     0.95800
C139        C  0.27790580  0.44947018  0.49887243     0.01900
C140        C  0.30855337  0.47086271  0.49930518     0.01900
C141        C  0.32326939  0.48059420  0.51963459    -0.18600
C142        C  0.30783544  0.46972575  0.53952240     0.01900
C143        C  0.27735340  0.44821943  0.53914352     0.01900
C144        C  0.26253749  0.43851017  0.51884255    -0.18600
H145        H  0.23969601  0.42121964  0.51857407     0.03900
H146        H  0.33074536  0.01222794  0.51938865     0.03900
C147        C  0.05406421  0.22253755  0.03973413     0.01900
C148        C  0.02690092  0.19699760  0.03977677     0.01900
C149        C  0.50878831  0.18139526  0.01883627    -0.18600
C150        C  0.02770674  0.19594691  0.99969688     0.01900
C151        C  0.05431897  0.22226653  0.99952294     0.01900
C152        C  0.06770672  0.23478491  0.01964978    -0.18600
H153        H  0.08797288  0.25505984  0.01970675     0.03900
H154        H  0.48775615  0.16192937  0.01838940     0.03900
C155        C  0.01436071  0.23541558  0.50121040     0.01900
C156        C  0.03518150  0.20427047  0.50098077     0.01900
C157        C  0.04725442  0.18965111  0.52087072    -0.18600
C158        C  0.03911310  0.20554710  0.54111411     0.01900
C159        C  0.01681951  0.23561043  0.54139101     0.01900
C160        C  0.00543695  0.25071928  0.52145806    -0.18600
H161        H  0.49173098  0.27511872  0.52301014     0.03900
H162        H  0.06454459  0.16676903  0.52050738     0.03900
C163        C  0.29754575  0.46219741  0.04018049     0.01900
C164        C  0.26517161  0.48096346  0.04017198     0.01900
C165        C  0.24937636  0.48958124  0.01997062    -0.18600
C166        C  0.26541335  0.48033070  0.99998954     0.01900
C167        C  0.29734801  0.46096857  0.99997522     0.01900
C168        C  0.31335869  0.45260308  0.02010890    -0.18600
H169        H  0.33760682  0.43735492  0.02018864     0.03900
H170        H  0.22783899  0.00518840  0.02072758     0.03900
C171        C  0.37589748  0.37515719  0.85566219     0.79900
N172        N  0.36059790  0.34663034  0.84584781    -0.78400
C173        C  0.37429716  0.33283492  0.82706499     0.82300
N174        N  0.40330118  0.34785505  0.81793036    -0.78400
C175        C  0.41871955  0.37648019  0.82740388     0.82400
N176        N  0.40513129  0.39000653  0.84638363    -0.80100
C177        C  0.41819389  0.10067055  0.86397021     0.79900
N178        N  0.43766984  0.07611216  0.85299956    -0.78400
C179        C  0.43189930  0.06995738  0.83130616     0.82300
N180        N  0.40741695  0.08934128  0.82036063    -0.78400
C181        C  0.38702893  0.11305243  0.83127875     0.82400
N182        N  0.39256476  0.11881109  0.85307500    -0.80100
C183        C  0.19968179  0.05415755  0.85355169     0.79900
N184        N  0.21424563  0.08287818  0.84357671    -0.78400
C185        C  0.19983234  0.09634968  0.82491742     0.82300
N186        N  0.17078783  0.08096312  0.81614858    -0.78400
C187        C  0.15613695  0.05215929  0.82588671     0.82400
N188        N  0.17043589  0.03890382  0.84468635    -0.80100
C189        C  0.14686822  0.32719068  0.86429391     0.79900
N190        N  0.17295860  0.30998488  0.85327481    -0.78400
C191        C  0.17767213  0.31555928  0.83139085     0.82300
N192        N  0.15602510  0.33829824  0.82050669    -0.78400
C193        C  0.13100752  0.35688147  0.83155398     0.82400
N194        N  0.12604407  0.35077794  0.85336667    -0.80100
C195        C  0.14608567  0.10388301  0.67387231     0.79900
N196        N  0.17126986  0.12322854  0.68449229    -0.78400
C197        C  0.17891410  0.11650194  0.70597464     0.82300
N198        N  0.16039742  0.09138116  0.71699176    -0.78400
C199        C  0.13608220  0.07123097  0.70648831     0.82400
N200        N  0.12885432  0.07762095  0.68493317    -0.80100
C201        C  0.38771113  0.07022277  0.67843240     0.79900
N202        N  0.37131369  0.09750886  0.68881356    -0.78400
C203        C  0.38129533  0.10730738  0.70937812     0.82300
N204        N  0.40803171  0.09000746  0.71955382    -0.78400
C205        C  0.42443481  0.06256228  0.70947431     0.82400
N206        N  0.41415799  0.05253727  0.68893020    -0.80100
N207        N  0.32718684  0.25681448  0.72777320    -0.06500
N208        N  0.33567735  0.27993086  0.71230054    -0.58600
N209        N  0.35077823  0.17613953  0.74349839    -0.06200
N210        N  0.37436528  0.15115194  0.73963144    -0.60700
N211        N  0.32650065  0.17622865  0.72797820    -0.05800
N212        N  0.33319172  0.15156848  0.71318968    -0.58600
N213        N  0.35072103  0.25738486  0.74369195    -0.05400
N214        N  0.37526722  0.28127480  0.73960390    -0.61100
C215        C  0.36540735  0.29526237  0.72009986     0.95700
C216        C  0.36297928  0.13611673  0.72072356     0.95500
N217        N  0.32727497  0.17678119  0.81140980    -0.06700
N218        N  0.33514984  0.15300895  0.82663353    -0.59200
N219        N  0.34958766  0.25821309  0.79563172    -0.04800
N220        N  0.37130275  0.28514885  0.79871633    -0.60400
N221        N  0.32492109  0.25804365  0.81088692    -0.06700
N222        N  0.32937913  0.28469479  0.82467501    -0.59400
N223        N  0.35081466  0.17623746  0.79553269    -0.04400
N224        N  0.37484566  0.15173428  0.79940416    -0.60500
Mn225      Mn  0.35145491  0.21694955  0.76964430     1.18400
C226        C  0.36459686  0.13730040  0.81872139     0.97800
C227        C  0.35832963  0.30140586  0.81684122     0.98400
N228        N  0.24226365  0.17643282  0.72692856    -0.06700
N229        N  0.23258944  0.15482065  0.71085563    -0.63000
N230        N  0.21888905  0.25682254  0.74343574    -0.05500
N231        N  0.19592572  0.28260918  0.74014111    -0.63700
N232        N  0.24332822  0.25730283  0.72803788    -0.06200
N233        N  0.23741517  0.28325915  0.71390899    -0.63300
N234        N  0.21901298  0.17542511  0.74298934    -0.05100
N235        N  0.19363016  0.15270970  0.73845770    -0.64000
Mn236      Mn  0.28486005  0.21665623  0.72709699     1.10700
C237        C  0.20244340  0.13991632  0.71849568     0.99000
C238        C  0.20784584  0.29885211  0.72171726     0.99100
N239        N  0.24118111  0.25543292  0.81129108    -0.06200
N240        N  0.23169397  0.27809367  0.82680646    -0.61600
N241        N  0.22062955  0.17350717  0.79487215    -0.05500
N242        N  0.20049049  0.14517515  0.79723359    -0.58300
N243        N  0.24491655  0.17426187  0.81034502    -0.06900
N244        N  0.24192314  0.14661554  0.82350143    -0.61200
N245        N  0.21785778  0.25543498  0.79527215    -0.05800
N246        N  0.19254935  0.27851304  0.79927480    -0.58400
Mn247      Mn  0.28454683  0.21629905  0.81165646     1.20200
Mn248      Mn  0.21822127  0.21526217  0.76920982     1.10100
Cl249      Cl  0.28478999  0.21632801  0.76937250    -0.86300
C250        C  0.20160046  0.29265671  0.81885065     0.96000
C251        C  0.21418437  0.12873611  0.81511767     0.95800
C252        C  0.41437500  0.33713554  0.67438599     0.74300
N253        N  0.43360448  0.36182851  0.68538875    -0.78400
C254        C  0.43020633  0.36530565  0.70751531     0.82300
N255        N  0.40778783  0.34376116  0.71865092    -0.78400
C256        C  0.38738532  0.32014236  0.70770377     0.82400
N257        N  0.39115828  0.31643124  0.68563165    -0.80100
C258        C  0.18501694  0.36983508  0.68182960     0.79900
N259        N  0.20171751  0.34193731  0.69153404    -0.78400
C260        C  0.19010673  0.32906252  0.71119308     0.82300
N261        N  0.16165582  0.34405082  0.72110077    -0.78400
C262        C  0.14504393  0.37198817  0.71160465     0.82400
N263        N  0.15681269  0.38474804  0.69203282    -0.80100
N264        N  0.49368819  0.42513945  0.81073050    -0.06500
N265        N  0.46748829  0.42086982  0.82483569    -0.58600
N266        N  0.07004530  0.39705341  0.79565376    -0.06200
N267        N  0.09250388  0.37114446  0.79976540    -0.60700
N268        N  0.07047792  0.42056315  0.81160235    -0.05800
N269        N  0.09288350  0.41068532  0.82715515    -0.58600
N270        N  0.49255853  0.40070831  0.79527654    -0.05400
N271        N  0.46545208  0.37934572  0.79857707    -0.61100
C272        C  0.45007647  0.39226433  0.81701845     0.95700
C273        C  0.10669256  0.38005231  0.81936646     0.95500
N274        N  0.07252839  0.42357332  0.72826329    -0.06700
N275        N  0.09874072  0.41810606  0.71442944    -0.59200
N276        N  0.49379306  0.40024405  0.74324762    -0.04800
N277        N  0.46891890  0.37669282  0.73930730    -0.60400
N278        N  0.49528199  0.42375274  0.72728919    -0.06700
N279        N  0.47174323  0.41623492  0.71191537    -0.59400
N280        N  0.07184869  0.39884766  0.74359032    -0.04400
N281        N  0.09792713  0.37606903  0.74046187    -0.60500
Mn282      Mn  0.03021455  0.39887219  0.76948310     1.18400
C283        C  0.11438625  0.38852336  0.72221607     0.97800
C284        C  0.45522264  0.38711068  0.71986139     0.98400
N285        N  0.07954526  0.00459289  0.81171775    -0.06700
N286        N  0.10687102  0.00844874  0.82498747    -0.63000
N287        N  0.49424553  0.03237570  0.79567940    -0.05500
N288        N  0.47047854  0.05711816  0.79955616    -0.63700
N289        N  0.49442450  0.00879603  0.81163714    -0.06200
N290        N  0.47114838  0.01740494  0.82692024    -0.63300
N291        N  0.07989602  0.02898175  0.79618545    -0.05100
N292        N  0.10753264  0.04987795  0.79856214    -0.64000
Mn293      Mn  0.03289925  0.46558484  0.81162950     1.10700
C294        C  0.12404361  0.03674016  0.81652609     0.99000
C295        C  0.45614079  0.04730658  0.81895918     0.99100
N296        N  0.49328147  0.00768000  0.72818278    -0.06200
N297        N  0.46849414  0.01411685  0.71346019    -0.61600
N298        N  0.07835651  0.03097777  0.74423971    -0.05500
N299        N  0.10094145  0.05645968  0.73949794    -0.58300
N300        N  0.07727792  0.00754186  0.72826460    -0.06900
N301        N  0.09864511  0.01710916  0.71206955    -0.61200
N302        N  0.49344901  0.03218712  0.74357134    -0.05800
N303        N  0.46845900  0.05578191  0.73967237    -0.58400
Mn304      Mn  0.03319672  0.46611990  0.72702158     1.20200
Mn305      Mn  0.03852779  0.03160747  0.77055046     1.10100
Cl306      Cl  0.03296172  0.46577119  0.76931849    -0.86300
C307        C  0.45315936  0.04408186  0.72088435     0.96000
C308        C  0.11361416  0.04739092  0.71952336     0.95800
C309        C  0.21807361  0.49985938  0.94571111     0.15600
C310        C  0.19591880  0.49984603  0.92724998    -0.33400
C311        C  0.21290439  0.01588285  0.90852260     0.20000
C312        C  0.24385050  0.03547150  0.90910574     0.02200
C313        C  0.26483193  0.03631416  0.92804085    -0.23200
C314        C  0.25324352  0.01697177  0.94633498     0.11400
S315        S  0.20891071  0.47947640  0.97017821    -0.06800
C316        C  0.24982987  0.49284420  0.97919233    -0.10300
C317        C  0.27046808  0.01386618  0.96597928    -0.26900
S318        S  0.25251613  0.05853187  0.88558493    -0.04100
C319        C  0.21384372  0.04189684  0.87481834    -0.17600
C320        C  0.19576317  0.01912254  0.88876383    -0.15600
H321        H  0.17040471  0.48695334  0.92766544     0.19800
H322        H  0.28905651  0.05151343  0.92852930     0.15900
H323        H  0.29576740  0.02583592  0.96963650     0.18400
H324        H  0.17067163  0.00680360  0.88501191     0.11700
C325        C  0.32701981  0.40054351  0.90899383     0.15600
C326        C  0.30349001  0.40285022  0.92674295    -0.33400
C327        C  0.31404149  0.42249100  0.94518640     0.20000
C328        C  0.34648953  0.43939584  0.94592708     0.02200
C329        C  0.36980225  0.43764552  0.92795259    -0.23200
C330        C  0.35933875  0.41773632  0.90950657     0.11400
S331        S  0.31991555  0.37610669  0.88579377    -0.06800
C332        C  0.36094853  0.38902437  0.87648124    -0.10300
C333        C  0.37879192  0.41157380  0.89074794    -0.26900
S334        S  0.35434565  0.46149706  0.97006087    -0.04100
C335        C  0.31327774  0.44821179  0.97906796    -0.17600
C336        C  0.29492202  0.42745469  0.96409476    -0.15600
H337        H  0.27824613  0.38942283  0.92633663     0.19800
H338        H  0.39517465  0.45080446  0.92844734     0.15900
H339        H  0.40503907  0.42193432  0.88789219     0.18400
H340        H  0.26864070  0.41707102  0.96680586     0.11700
C341        C  0.09251064  0.18385453  0.59356042     0.15600
C342        C  0.11464227  0.18446595  0.61210870    -0.33400
C343        C  0.11872228  0.15287825  0.62412661     0.20000
C344        C  0.10147492  0.12206898  0.61794880     0.02200
C345        C  0.07995015  0.12126976  0.59912726    -0.23200
C346        C  0.07588492  0.15283822  0.58709950     0.11400
S347        S  0.08313541  0.21963921  0.57728341    -0.06800
C348        C  0.05681517  0.19251534  0.56140329    -0.10300
C349        C  0.05569138  0.15754374  0.56849760    -0.26900
S350        S  0.10740334  0.08741092  0.63573901    -0.04100
C351        C  0.13362605  0.11452906  0.65169852    -0.17600
C352        C  0.13763370  0.14857758  0.64327633    -0.15600
H353        H  0.12759718  0.20868527  0.61718873     0.19800
H354        H  0.06638561  0.09724620  0.59431902     0.15900
H355        H  0.04070678  0.13677786  0.56052817     0.18400
H356        H  0.15200157  0.16966362  0.65136998     0.11700
C357        C  0.46917989  0.25793837  0.59568024     0.15600
C358        C  0.44774132  0.25699830  0.61438796    -0.33400
C359        C  0.44104652  0.28908348  0.62513095     0.20000
C360        C  0.45519146  0.32079642  0.61770569     0.02200
C361        C  0.47606064  0.32186935  0.59863852    -0.23200
C362        C  0.48271106  0.28967440  0.58783380     0.11400
S363        S  0.48063436  0.22166358  0.58066354    -0.06800
C364        C  0.00118786  0.24858895  0.56209144    -0.10300
C365        C  0.00168122  0.28379266  0.56858891    -0.26900
S366        S  0.44710733  0.35605783  0.63461003    -0.04100
C367        C  0.42435478  0.32766440  0.65175195    -0.17600
C368        C  0.42273810  0.29299449  0.64434779    -0.15600
H369        H  0.43724154  0.23220502  0.62054265     0.19800
H370        H  0.98989503  0.34452727  0.59369460     0.15900
H371        H  0.01539759  0.30478154  0.55994968     0.18400
H372        H  0.41120253  0.27118133  0.65344438     0.11700
C373        C  0.13295886  0.28737726  0.92191051     0.15600
C374        C  0.13576777  0.26926102  0.94204832    -0.33400
C375        C  0.10437628  0.26124332  0.95332817     0.20000
C376        C  0.07173797  0.27079393  0.94488273     0.02200
C377        C  0.06899689  0.28946282  0.92503684    -0.23200
C378        C  0.10028715  0.29760535  0.91384382     0.11400
S379        S  0.16741976  0.29715052  0.90473798    -0.06800
C380        C  0.13745545  0.31576450  0.88674725    -0.10300
C381        C  0.10275527  0.31435405  0.89389794    -0.26900
S382        S  0.03670242  0.25775112  0.96050356    -0.04100
C383        C  0.06616386  0.23917399  0.97877015    -0.17600
C384        C  0.10135869  0.24340485  0.97296996    -0.15600
H385        H  0.16120921  0.26120338  0.94843103     0.19800
H386        H  0.04350107  0.29687732  0.91843264     0.15900
H387        H  0.08026183  0.32334210  0.88441890     0.18400
H388        H  0.12344443  0.23368745  0.98253313     0.11700
C389        C  0.50047482  0.15019458  0.94372740     0.15600
C390        C  0.50087795  0.13122457  0.92392072    -0.33400
C391        C  0.46876879  0.12691046  0.91275865     0.20000
C392        C  0.43765035  0.14133613  0.92070367     0.02200
C393        C  0.43713160  0.15983014  0.94073730    -0.23200
C394        C  0.46921166  0.16370248  0.95209565     0.11400
S395        S  0.53674320  0.15856232  0.95958837    -0.06800
C396        C  0.50949277  0.18003247  0.97793987    -0.10300
C397        C  0.47417558  0.18050015  0.97189597    -0.26900
S398        S  0.40206942  0.13531362  0.90374737    -0.04100
C399        C  0.42929862  0.11232771  0.88606868    -0.17600
C400        C  0.46403793  0.10984319  0.89310419    -0.15600
H401        H  0.52521590  0.12044442  0.91742400     0.19800
H402        H  0.41286440  0.17095400  0.94710255     0.15900
H403        H  0.96067405  0.20092527  0.97976291     0.18400
H404        H  0.48514108  0.09759730  0.88381012     0.11700
C405        C  0.34948381  0.99445830  0.59347096     0.15600
C406        C  0.36948360  0.99380569  0.61287619    -0.33400
C407        C  0.36815054  0.02368489  0.62655414     0.20000
C408        C  0.34773025  0.05292243  0.62116511     0.02200
C409        C  0.32818738  0.05384490  0.60154636    -0.23200
C410        C  0.32959841  0.02396961  0.58783447     0.11400
S411        S  0.36407615  0.47002829  0.56981578    -0.06800
C412        C  0.32288053  0.48230068  0.56055641    -0.10300
C413        C  0.31213679  0.01950331  0.56822668    -0.26900
S414        S  0.34801293  0.08557514  0.64059741    -0.04100
C415        C  0.37601221  0.05962209  0.65618250    -0.17600
C416        C  0.38480429  0.02755418  0.64647708    -0.15600
H417        H  0.40484439  0.48443342  0.61095094     0.19800
H418        H  0.31218974  0.07663116  0.59731729     0.15900
H419        H  0.29500827  0.03905559  0.56073370     0.18400
H420        H  0.40154332  0.00761309  0.65392213     0.11700
C421        C  0.20458285  0.41459446  0.62599507     0.15600
C422        C  0.20463015  0.43579429  0.60696422    -0.33400
C423        C  0.23013075  0.42859441  0.59079407     0.20000
C424        C  0.25457926  0.40159609  0.59355406     0.02200
C425        C  0.25444650  0.38038714  0.61253119    -0.23200
C426        C  0.22891423  0.38749421  0.62864833     0.11400
S427        S  0.17585305  0.41894053  0.64749083    -0.06800
C428        C  0.19670793  0.38375799  0.66022246    -0.10300
C429        C  0.22456434  0.36972554  0.64822493    -0.26900
S430        S  0.28413211  0.39772228  0.57249392    -0.04100
C431        C  0.26330142  0.43265168  0.55971489    -0.17600
C432        C  0.23489611  0.44646728  0.57126771    -0.15600
H433        H  0.18568666  0.45701270  0.60488572     0.19800
H434        H  0.27356183  0.35934407  0.61468710     0.15900
H435        H  0.24069102  0.34759205  0.65347842     0.18400
H436        H  0.21932275  0.46895401  0.56595212     0.11700
C437        C  0.21101296  0.06419347  0.11890544     0.15600
C438        C  0.23527588  0.06247493  0.10149786    -0.33400
C439        C  0.23515711  0.03197985  0.08829988     0.20000
C440        C  0.21146790  0.00460090  0.09197258     0.02200
C441        C  0.18681393  0.00655330  0.10921952    -0.23200
C442        C  0.18734451  0.03685549  0.12268508     0.11400
S443        S  0.20946435  0.09731497  0.13802407    -0.06800
C444        C  0.17703632  0.07391066  0.15169130    -0.10300
C445        C  0.16744232  0.04250136  0.14130662    -0.26900
S446        S  0.21571013  0.96989715  0.07400893    -0.04100
C447        C  0.24806657  0.49345981  0.06074122    -0.17600
C448        C  0.26404020  0.51687770  0.07523596    -0.15600
H449        H  0.27353317  0.56370077  0.11014510     0.19800
H450        H  0.16856132  0.98504580  0.11231393     0.15900
H451        H  0.14855782  0.02365857  0.14778806     0.18400
H452        H  0.29063488  0.52695693  0.07342625     0.11700
C453        C  0.05816630  0.15382963  0.44807307     0.15600
C454        C  0.06211269  0.12937575  0.43087591    -0.33400
C455        C  0.07998280  0.14078039  0.41190085     0.20000
C456        C  0.09316430  0.17496623  0.41015066     0.02200
C457        C  0.08869807  0.19946975  0.42712108    -0.23200
C458        C  0.07114160  0.18804304  0.44605884     0.11400
S459        S  0.03814074  0.14534450  0.47274192    -0.06800
C460        C  0.04707860  0.18849865  0.48008138    -0.10300
C461        C  0.06500959  0.20794381  0.46436647    -0.26900
S462        S  0.11570602  0.18333282  0.38649647    -0.04100
C463        C  0.10726006  0.14035805  0.37867913    -0.17600
C464        C  0.08765769  0.12081504  0.39367825    -0.15600
H465        H  0.05215710  0.10258165  0.43233221     0.19800
H466        H  0.09900387  0.22615271  0.42577474     0.15900
H467        H  0.07285441  0.23537523  0.46621994     0.18400
H468        H  0.08037948  0.09326313  0.39164785     0.11700
C469        C  0.35029085  0.00425142  0.44522449     0.15600
C470        C  0.37044231  0.00603450  0.42591970    -0.33400
C471        C  0.37373862  0.03909182  0.41552940     0.20000
C472        C  0.35764651  0.06916837  0.42389540     0.02200
C473        C  0.33829592  0.06758823  0.44362172    -0.23200
C474        C  0.33496309  0.03441180  0.45404466     0.11400
S475        S  0.34203632  0.96629479  0.45968460    -0.06800
C476        C  0.32411024  0.48575274  0.47897841    -0.10300
C477        C  0.30986273  0.51491978  0.46836444    -0.26900
S478        S  0.36170882  0.10581095  0.40735069    -0.04100
C479        C  0.38563027  0.08031892  0.38912030    -0.17600
C480        C  0.39037656  0.04549163  0.39590956    -0.15600
H481        H  0.38236998  0.98247191  0.41899954     0.19800
H482        H  0.32561686  0.09097210  0.45023872     0.15900
H483        H  0.28583441  0.52820386  0.47334798     0.18400
H484        H  0.40333783  0.02519731  0.38625605     0.11700
C485        C  0.07795893  0.29472517  0.12751799     0.15600
C486        C  0.05729906  0.29271370  0.10843491    -0.33400
C487        C  0.06784769  0.26887324  0.09202657     0.20000
C488        C  0.09771512  0.24796937  0.09442519     0.02200
C489        C  0.11840258  0.24999913  0.11352239    -0.23200
C490        C  0.10774278  0.27376286  0.12999299     0.11400
S491        S  0.06957225  0.32198372  0.14931390    -0.06800
C492        C  0.10652169  0.30492051  0.16203256    -0.10300
C493        C  0.12418432  0.27941137  0.14979121    -0.26900
S494        S  0.10552445  0.22013929  0.07278393    -0.04100
C495        C  0.06811723  0.23681664  0.06052507    -0.17600
C496        C  0.05078983  0.26262052  0.07254477    -0.15600
H497        H  0.03390660  0.30889910  0.10650734     0.19800
H498        H  0.14163505  0.23360596  0.11552371     0.15900
H499        H  0.14795835  0.26588865  0.15501899     0.18400
H500        H  0.02659900  0.27551985  0.06746249     0.11700
C501        C  0.49950415  0.14928941  0.09452745     0.15600
C502        C  0.50029210  0.13200443  0.11492911    -0.33400
C503        C  0.47250690  0.13859626  0.12958797     0.20000
C504        C  0.44494911  0.16111976  0.12413831     0.02200
C505        C  0.44378236  0.17786056  0.10354429    -0.23200
C506        C  0.47173019  0.17150403  0.08893914     0.11400
S507        S  0.02596782  0.14362946  0.07167970    -0.06800
C508        C  0.50820917  0.17646556  0.05957473    -0.10300
C509        C  0.47639150  0.18685898  0.06869491    -0.26900
S510        S  0.41448470  0.16658896  0.14456853    -0.04100
C511        C  0.43903827  0.13804004  0.16059488    -0.17600
C512        C  0.46918119  0.12515194  0.15042496    -0.15600
H513        H  0.01028290  0.10551370  0.11333384     0.19800
H514        H  0.42244902  0.19567889  0.09928632     0.15900
H515        H  0.45856290  0.20593539  0.06136585     0.18400
H516        H  0.48781766  0.10703905  0.15792102     0.11700
C517        C  0.24952761  0.40315498  0.44538336     0.15600
C518        C  0.24663965  0.38123268  0.42685158    -0.33400
C519        C  0.21484728  0.38203001  0.41501040     0.20000
C520        C  0.18722387  0.40393051  0.42118403     0.02200
C521        C  0.18994313  0.42556190  0.43989944    -0.23200
C522        C  0.22165446  0.42453278  0.45187644     0.11400
S523        S  0.28589094  0.40590497  0.46192203    -0.06800
C524        C  0.26320759  0.43579891  0.47797058    -0.10300
C525        C  0.22926921  0.44314044  0.47071776    -0.26900
S526        S  0.15176976  0.40262167  0.40375852    -0.04100
C527        C  0.17426038  0.37197486  0.38806084    -0.17600
C528        C  0.20741386  0.36334593  0.39622377    -0.15600
H529        H  0.26831640  0.36440514  0.42181140     0.19800
H530        H  0.16838442  0.44262425  0.44482213     0.15900
H531        H  0.21110648  0.46088290  0.47893053     0.18400
H532        H  0.22583817  0.34555377  0.38827275     0.11700
C533        C  0.33945621  0.38207710  0.12250114     0.15600
C534        C  0.31414224  0.38718098  0.10602592    -0.33400
C535        C  0.32067637  0.41349389  0.09029407     0.20000
C536        C  0.35150449  0.43330314  0.09055632     0.02200
C537        C  0.37686991  0.42822636  0.10711277    -0.23200
C538        C  0.36991533  0.40240706  0.12321302     0.11400
S539        S  0.33509535  0.35300473  0.14375726    -0.06800
C540        C  0.37422646  0.36897382  0.15429078    -0.10300
C541        C  0.39006623  0.39499678  0.14146751    -0.26900
S542        S  0.35478302  0.46318789  0.06948396    -0.04100
C543        C  0.31383120  0.44937249  0.06070845    -0.17600
C544        C  0.29882524  0.42280945  0.07330615    -0.15600
H545        H  0.29006118  0.37174093  0.10572626     0.19800
H546        H  0.40067806  0.44406311  0.10761484     0.15900
H547        H  0.41415818  0.40879427  0.14573713     0.18400
H548        H  0.27361966  0.41047067  0.06987628     0.11700
C549        C  0.45091250  0.26985806  0.41343690     0.15600
C550        C  0.45480094  0.24526232  0.43060169    -0.33400
C551        C  0.47530680  0.25520116  0.44880394     0.20000
C552        C  0.99009386  0.28741814  0.44860335     0.02200
C553        C  0.98704427  0.31218947  0.43141382    -0.23200
C554        C  0.46723157  0.30270421  0.41433549     0.11400
S555        S  0.42635551  0.26308994  0.39025208    -0.06800
C556        C  0.43842754  0.30481358  0.38137547    -0.10300
C557        C  0.46044418  0.32277807  0.39587228    -0.26900
S558        S  0.01140030  0.29463791  0.47302509    -0.04100
C559        C  0.00108286  0.25180606  0.48055700    -0.17600
C560        C  0.48238862  0.23479671  0.46698995    -0.15600
H561        H  0.44227695  0.21950257  0.42983064     0.19800
H562        H  0.99851771  0.33836627  0.43280143     0.15900
H563        H  0.47045615  0.34931506  0.39322405     0.18400
H564        H  0.47304919  0.20793176  0.46930835     0.11700
C565        C  0.42743405  0.82123585  0.35992254     0.79900
N566        N  0.44318017  0.84997392  0.35051028    -0.78400
C567        C  0.43197928  0.86203582  0.33052708     0.82300
N568        N  0.40482539  0.84554065  0.32015867    -0.78400
C569        C  0.38917019  0.81686958  0.32942440     0.82400
N570        N  0.40065296  0.80476563  0.34918100    -0.80100
C571        C  0.39178773  0.85891302  0.17702181     0.79900
N572        N  0.37326685  0.83322006  0.18769731    -0.78400
C573        C  0.37824878  0.82759430  0.20955406     0.82300
N574        N  0.40150222  0.84811291  0.22078722    -0.78400
C575        C  0.42120855  0.87269681  0.21007702     0.82400
N576        N  0.41592211  0.87840303  0.18828305    -0.80100
C577        C  0.16340305  0.86133140  0.36504910     0.79900
N578        N  0.18161308  0.83540305  0.35442251    -0.78400
C579        C  0.17474404  0.82806949  0.33298198     0.82300
N580        N  0.14995410  0.84719514  0.32206331    -0.78400
C581        C  0.13046052  0.87193548  0.33277772     0.82400
N582        N  0.13766225  0.87936259  0.35416090    -0.80100
C583        C  0.42557666  0.62240216  0.18157046     0.79900
N584        N  0.44304755  0.59590618  0.19216088    -0.78400
C585        C  0.43286872  0.58561237  0.21262786     0.82300
N586        N  0.40535402  0.60199106  0.22256720    -0.78400
C587        C  0.38817328  0.62878142  0.21229130     0.82400
N588        N  0.39815027  0.63881988  0.19174167    -0.80100
N589        N  0.98191952  0.93327876  0.22854857    -0.06500
N590        N  0.97266634  0.91028107  0.21319032    -0.58600
N591        N  0.46035136  0.51432351  0.24582279    -0.06200
N592        N  0.43825126  0.54078616  0.24239960    -0.60700
N593        N  0.98507593  0.51640635  0.22999010    -0.05800
N594        N  0.97955323  0.54219885  0.21568608    -0.58600
N595        N  0.45889000  0.93498249  0.24581964    -0.05400
N596        N  0.43428409  0.91103752  0.24200366    -0.61100
C597        C  0.44392692  0.89673607  0.22256654     0.95700
C598        C  0.45040083  0.55600473  0.22372033     0.95500
N599        N  0.98333078  0.51560954  0.31333262    -0.06700
N600        N  0.97481205  0.53890302  0.32873067    -0.59200
N601        N  0.45975131  0.93430043  0.29782057    -0.04800
N602        N  0.43697420  0.90840355  0.30136785    -0.60400
N603        N  0.98335459  0.93302925  0.31199040    -0.06700
N604        N  0.97662349  0.90825196  0.32676726    -0.59400
N605        N  0.46039530  0.51424845  0.29761424    -0.04400
N606        N  0.43670785  0.53900094  0.30158869    -0.60500
Mn607      Mn  0.45896603  0.97548123  0.27168349     1.18400
C608        C  0.44720028  0.55308454  0.32091296     0.97800
C609        C  0.44908630  0.89259320  0.31991526     0.98400
N610        N  0.06949425  0.51269326  0.22875458    -0.06700
N611        N  0.07992022  0.53385665  0.21259131    -0.63000
N612        N  0.09007160  0.93053093  0.24465350    -0.05500
N613        N  0.11215942  0.90388408  0.24181769    -0.63700
N614        N  0.06574463  0.93048958  0.22918362    -0.06200
N615        N  0.07086846  0.90389880  0.21544734    -0.63300
N616        N  0.09290166  0.51265069  0.24475823    -0.05100
N617        N  0.11919121  0.53425885  0.24005511    -0.64000
Mn618      Mn  0.02536564  0.97237497  0.22781993     1.10700
C619        C  0.11076335  0.54741356  0.22006721     0.99000
C620        C  0.09981625  0.88753294  0.22360101     0.99100
N621        N  0.06760920  0.93264532  0.31233088    -0.06200
N622        N  0.07691367  0.91019514  0.32805690    -0.61600
N623        N  0.09154049  0.51419979  0.29715241    -0.05500
N624        N  0.11447705  0.54000161  0.30054137    -0.58300
N625        N  0.06708835  0.51456451  0.31255710    -0.06900
N626        N  0.07287587  0.54035445  0.32671820    -0.61200
N627        N  0.09091382  0.93196760  0.29629452    -0.05800
N628        N  0.11591251  0.90863279  0.30047038    -0.58400
Mn629      Mn  0.02520701  0.97310691  0.31252345     1.20200
Mn630      Mn  0.09183362  0.97201707  0.27019648     1.10100
Cl631      Cl  0.02528373  0.97292352  0.27018472    -0.86300
C632        C  0.10676614  0.89502880  0.32017417     0.96000
C633        C  0.10240185  0.55600291  0.31900523     0.95800
C634        C  0.11998629  0.81498186  0.18467801     0.79900
N635        N  0.10409266  0.84329180  0.19428311    -0.78400
C636        C  0.11661822  0.85657370  0.21350783     0.82300
N637        N  0.14525287  0.84152085  0.22314535    -0.78400
C638        C  0.16116585  0.81312651  0.21372388     0.82400
N639        N  0.14853154  0.79996757  0.19448991    -0.80100
C640        C  0.39403214  0.58924991  0.36646020     0.79900
N641        N  0.41940993  0.57109180  0.35536249    -0.78400
C642        C  0.42485148  0.57716615  0.33359975     0.82300
N643        N  0.40430600  0.60091815  0.32279903    -0.78400
C644        C  0.37990207  0.62023967  0.33382886     0.82400
N645        N  0.37452443  0.61406113  0.35560753    -0.80100
C646        C  0.12185061  0.62782217  0.35860177     0.79900
N647        N  0.14980295  0.64374357  0.34864686    -0.78400
C648        C  0.16268535  0.63098129  0.32936518     0.82300
N649        N  0.14738451  0.60232379  0.31989754    -0.78400
C650        C  0.11925914  0.58648272  0.32956930     0.82400
N651        N  0.10662390  0.59915218  0.34896663    -0.80100
C652        C  0.16892740  0.58299574  0.17600270     0.79900
N653        N  0.18606430  0.60882319  0.18737450    -0.78400
C654        C  0.17800214  0.61547747  0.20869978     0.82300
N655        N  0.15315088  0.59560837  0.21891598    -0.78400
C656        C  0.13470749  0.57071392  0.20765219     0.82400
N657        N  0.14287786  0.56405752  0.18617919    -0.80100
N658        N  0.31740990  0.76450067  0.31240472    -0.06500
N659        N  0.34336477  0.77006608  0.32644057    -0.58600
N660        N  0.23603340  0.78932229  0.29708479    -0.06200
N661        N  0.21234047  0.81411292  0.30099236    -0.60700
N662        N  0.23665546  0.76601297  0.31318399    -0.05800
N663        N  0.21378139  0.77500371  0.32865687    -0.58600
N664        N  0.31738375  0.78887966  0.29689304    -0.05400
N665        N  0.34350067  0.81151756  0.30003504    -0.61100
C666        C  0.35944114  0.79935640  0.31848368     0.95700
C667        C  0.19845153  0.80473745  0.32059053     0.95500
N668        N  0.23516268  0.76328889  0.23002771    -0.06700
N669        N  0.20874278  0.76798174  0.21619185    -0.59200
N670        N  0.31630120  0.78916773  0.24516994    -0.04800
N671        N  0.33997846  0.81395781  0.24124896    -0.60400
N672        N  0.31596042  0.76564339  0.22922480    -0.06700
N673        N  0.33906244  0.77449324  0.21382610    -0.59400
N674        N  0.23500180  0.78793764  0.24533358    -0.04400
N675        N  0.20830405  0.80989237  0.24225516    -0.60500
Mn676      Mn  0.27617420  0.78971889  0.27110428     1.18400
C677        C  0.19222475  0.79705279  0.22405669     0.97800
C678        C  0.35415683  0.80440689  0.22179250     0.98400
N679        N  0.23583442  0.68197180  0.31286154    -0.06700
N680        N  0.20954155  0.67697076  0.32675972    -0.63000
N681        N  0.31729505  0.65689597  0.29772377    -0.05500
N682        N  0.34127987  0.63245171  0.30189333    -0.63700
N683        N  0.31659955  0.68062473  0.31355667    -0.06200
N684        N  0.33971799  0.67235637  0.32905850    -0.63300
N685        N  0.23590324  0.65728488  0.29757067    -0.05100
N686        N  0.20949954  0.63501524  0.30072338    -0.64000
Mn687      Mn  0.27661092  0.72326691  0.31364719     1.10700
C688        C  0.19334512  0.64767893  0.31894194     0.99000
C689        C  0.35521526  0.64252508  0.32135993     0.99100
N690        N  0.31729045  0.68153415  0.23005895    -0.06200
N691        N  0.34248801  0.67567449  0.21554129    -0.61600
N692        N  0.23667196  0.65577869  0.24564371    -0.05500
N693        N  0.21387047  0.63028353  0.24136407    -0.58300
N694        N  0.23699806  0.67924931  0.22961380    -0.06900
N695        N  0.21486278  0.66970179  0.21387039    -0.61200
N696        N  0.31774279  0.65722391  0.24562283    -0.05800
N697        N  0.34351652  0.63440799  0.24206486    -0.58400
Mn698      Mn  0.27635432  0.72247765  0.22910153     1.20200
Mn699      Mn  0.27694601  0.65587297  0.27167882     1.10100
Cl700      Cl  0.27652976  0.72279974  0.27137797    -0.86300
C701        C  0.35865495  0.64633345  0.22330280     0.96000
C702        C  0.20023418  0.63945334  0.22164494     0.95800
C703        C  0.28128547  0.94487860  0.49811455     0.01900
C704        C  0.30287476  0.97551189  0.49850659     0.01900
C705        C  0.31325100  0.98950657  0.51893357    -0.18600
C706        C  0.30327269  0.97320666  0.53878163     0.01900
C707        C  0.28140890  0.94282288  0.53837490     0.01900
C708        C  0.27107015  0.92876805  0.51800686    -0.18600
H709        H  0.25381592  0.90585726  0.51762668     0.03900
H710        H  0.34634377  0.49757270  0.51998271     0.03900
C711        C  0.05472439  0.72082949  0.04084732     0.01900
C712        C  0.02728989  0.69562463  0.04041884     0.01900
C713        C  0.50725355  0.68747403  0.01986077    -0.18600
C714        C  0.02856405  0.69593826  0.00029463     0.01900
C715        C  0.05553109  0.72179830  0.00076648     0.01900
C716        C  0.06869932  0.73363493  0.02104893    -0.18600
H717        H  0.08921713  0.75365158  0.02142835     0.03900
H718        H  0.48641195  0.66778990  0.01948625     0.03900
C719        C  0.01041521  0.73539838  0.50175919     0.01900
C720        C  0.02995351  0.70343572  0.50139300     0.01900
C721        C  0.04137183  0.68808713  0.52128889    -0.18600
C722        C  0.03374954  0.70405401  0.54166505     0.01900
C723        C  0.01247374  0.73492145  0.54195537     0.01900
C724        C  0.00190080  0.75069828  0.52206188    -0.18600
H725        H  0.49351470  0.77534150  0.52274313     0.03900
H726        H  0.05796012  0.66470205  0.52080195     0.03900
C727        C  0.29849626  0.95989683  0.04132325     0.01900
C728        C  0.26703995  0.98004724  0.04116274     0.01900
C729        C  0.25172689  0.98937550  0.02095250    -0.18600
C730        C  0.26744127  0.97937649  0.00102282     0.01900
C731        C  0.29868031  0.95894818  0.00111741     0.01900
C732        C  0.31400908  0.94955836  0.02130064    -0.18600
H733        H  0.33780965  0.93361777  0.02145129     0.03900
H734        H  0.22508420  0.50475689  0.01977034     0.03900
C735        C  0.37389786  0.87384711  0.85606184     0.79900
N736        N  0.35877447  0.84525231  0.84620829    -0.78400
C737        C  0.37215061  0.83207880  0.82715324     0.82300
N738        N  0.40064384  0.84775507  0.81781953    -0.78400
C739        C  0.41586081  0.87642939  0.82734498     0.82400
N740        N  0.40260523  0.88933900  0.84656999    -0.80100
C741        C  0.42305642  0.60134395  0.86507217     0.79900
N742        N  0.44362412  0.57772843  0.85399447    -0.78400
C743        C  0.43842281  0.57197457  0.83215767     0.82300
N744        N  0.41328183  0.59068056  0.82129583    -0.78400
C745        C  0.39181883  0.61333588  0.83231593     0.82400
N746        N  0.39690549  0.61875693  0.85416901    -0.80100
C747        C  0.19596692  0.55266254  0.85263844     0.79900
N748        N  0.21117699  0.58103083  0.84277335    -0.78400
C749        C  0.19758181  0.59456228  0.82396894     0.82300
N750        N  0.16863251  0.57947346  0.81482275    -0.78400
C751        C  0.15335738  0.55083955  0.82445607     0.82400
N752        N  0.16684778  0.53763318  0.84350327    -0.80100
C753        C  0.15091837  0.82537149  0.86630355     0.79900
N754        N  0.17617527  0.80757964  0.85490006    -0.78400
C755        C  0.18069180  0.81351211  0.83306372     0.82300
N756        N  0.15970600  0.83717542  0.82256435    -0.78400
C757        C  0.13551254  0.85631812  0.83389835     0.82400
N758        N  0.13066449  0.84995595  0.85573365    -0.80100
C759        C  0.14523892  0.60318171  0.67368878     0.79900
N760        N  0.17020530  0.62269795  0.68443989    -0.78400
C761        C  0.17791735  0.61575385  0.70591743     0.82300
N762        N  0.15952650  0.59032340  0.71678945    -0.78400
C763        C  0.13540501  0.57007071  0.70613022     0.82400
N764        N  0.12827921  0.57663213  0.68460062    -0.80100
C765        C  0.38255756  0.56099823  0.68276576     0.79900
N766        N  0.36615063  0.58832349  0.69308626    -0.78400
C767        C  0.37863325  0.60086345  0.71251214     0.82300
N768        N  0.40757455  0.58588782  0.72176376    -0.78400
C769        C  0.42392266  0.55835346  0.71170898     0.82400
N770        N  0.41148401  0.54602418  0.69217539    -0.80100
N771        N  0.32812587  0.75385888  0.72833542    -0.06500
N772        N  0.33687237  0.77664199  0.71272125    -0.58600
N773        N  0.35101052  0.67333245  0.74462253    -0.06200
N774        N  0.37357894  0.64715263  0.74150495    -0.60700
N775        N  0.32656452  0.67306375  0.72920149    -0.05800
N776        N  0.33208627  0.64691360  0.71524788    -0.58600
N777        N  0.35137876  0.75476491  0.74439066    -0.05400
N778        N  0.37602623  0.77851773  0.74024908    -0.61100
C779        C  0.36652305  0.79205637  0.72055909     0.95700
C780        C  0.36135373  0.63096448  0.72317730     0.95500
N781        N  0.32856537  0.67392986  0.81221642    -0.06700
N782        N  0.33782971  0.65104144  0.82771043    -0.59200
N783        N  0.34971140  0.75605801  0.79635789    -0.04800
N784        N  0.37041105  0.78388270  0.79909927    -0.60400
N785        N  0.32526597  0.75529155  0.81174229    -0.06700
N786        N  0.32879444  0.78246348  0.82524255    -0.59400
N787        N  0.35208434  0.67410382  0.79633032    -0.04400
N788        N  0.37730258  0.65093377  0.80036704    -0.60500
Mn789      Mn  0.35199998  0.71463447  0.77045675     1.18400
C790        C  0.36801274  0.63653935  0.81984541     0.97800
C791        C  0.35701251  0.80006938  0.81713684     0.98400
N792        N  0.24221843  0.67455577  0.72735763    -0.06700
N793        N  0.23225982  0.65322974  0.71118856    -0.63000
N794        N  0.22041377  0.75547822  0.74403223    -0.05500
N795        N  0.19800403  0.78168669  0.74063913    -0.63700
N796        N  0.24480393  0.75524128  0.72860723    -0.06200
N797        N  0.23949421  0.78112259  0.71437496    -0.63300
N798        N  0.21865221  0.67416111  0.74324020    -0.05100
N799        N  0.19276885  0.65208139  0.73850099    -0.64000
Mn800      Mn  0.28552277  0.71404460  0.72778440     1.10700
C801        C  0.20157820  0.63907229  0.71857168     0.99000
C802        C  0.21029700  0.79736759  0.72212940     0.99100
N803        N  0.24234290  0.75250513  0.81215282    -0.06200
N804        N  0.23347410  0.77491260  0.82791656    -0.61600
N805        N  0.22056397  0.67184185  0.79493059    -0.05500
N806        N  0.19965811  0.64403685  0.79691069    -0.58300
N807        N  0.24495050  0.67150013  0.81037773    -0.06900
N808        N  0.24108778  0.64358406  0.82321333    -0.61200
N809        N  0.21908799  0.75353761  0.79610718    -0.05800
N810        N  0.19429117  0.77704486  0.80042864    -0.58400
Mn811      Mn  0.28523991  0.71318593  0.81232802     1.20200
Mn812      Mn  0.21877807  0.71386543  0.76966040     1.10100
Cl813      Cl  0.28538216  0.71387039  0.77004293    -0.86300
C814        C  0.20374648  0.79034806  0.82017896     0.96000
C815        C  0.21286314  0.62673172  0.81456557     0.95800
C816        C  0.41760270  0.83306781  0.67537618     0.74300
N817        N  0.43506149  0.85895258  0.68641591    -0.78400
C818        C  0.42986072  0.86342771  0.70830068     0.82300
N819        N  0.40740108  0.84169737  0.71922917    -0.78400
C820        C  0.38864873  0.81684296  0.70820631     0.82400
N821        N  0.39423904  0.81208556  0.68633627    -0.80100
C822        C  0.18922309  0.86811351  0.68197193     0.79900
N823        N  0.20482358  0.83958589  0.69159802    -0.78400
C824        C  0.19336313  0.82771019  0.71148829     0.82300
N825        N  0.16591847  0.84397600  0.72159261    -0.78400
C826        C  0.15018908  0.87242242  0.71218373     0.82400
N827        N  0.16206041  0.88464331  0.69244613    -0.80100
N828        N  0.49091857  0.92529721  0.81122744    -0.06500
N829        N  0.46433975  0.92106069  0.82504700    -0.58600
N830        N  0.07613789  0.89703863  0.79731723    -0.06200
N831        N  0.09828840  0.87106303  0.80178181    -0.60700
N832        N  0.07591345  0.92044281  0.81335007    -0.05800
N833        N  0.09754909  0.91036823  0.82929622    -0.58600
N834        N  0.49032000  0.90081305  0.79581486    -0.05400
N835        N  0.46312820  0.87943574  0.79883115    -0.61100
C836        C  0.44720370  0.89241214  0.81708332     0.95700
C837        C  0.11156739  0.87974053  0.82165661     0.95500
N838        N  0.07771866  0.92359843  0.72958961    -0.06700
N839        N  0.10367417  0.91855137  0.71547110    -0.59200
N840        N  0.49172675  0.90045474  0.74407256    -0.04800
N841        N  0.46744498  0.87629955  0.74021077    -0.60400
N842        N  0.49258141  0.92399629  0.72811683    -0.06700
N843        N  0.46924625  0.91583258  0.71277060    -0.59400
N844        N  0.07777533  0.89890789  0.74494577    -0.04400
N845        N  0.10410025  0.87656527  0.74153350    -0.60500
Mn846      Mn  0.03630815  0.89771242  0.77107367     1.18400
C847        C  0.11996764  0.88924799  0.72313242     0.97800
C848        C  0.45345491  0.88636180  0.72079895     0.98400
N849        N  0.07604243  0.50451996  0.81015596    -0.06700
N850        N  0.10354892  0.50774041  0.82334757    -0.63000
N851        N  0.49881417  0.53260879  0.79556792    -0.05500
N852        N  0.47627403  0.55832168  0.79995639    -0.63700
N853        N  0.49891780  0.50903023  0.81152859    -0.06200
N854        N  0.47682443  0.51859944  0.82729589    -0.63300
N855        N  0.07678556  0.52901682  0.79470274    -0.05100
N856        N  0.10487955  0.54930771  0.79701849    -0.64000
Mn857      Mn  0.03739806  0.96465079  0.81325455     1.10700
C858        C  0.12124991  0.53573541  0.81489599     0.99000
C859        C  0.46263072  0.54915710  0.81969164     0.99100
N860        N  0.49682320  0.50714375  0.72790447    -0.06200
N861        N  0.47070173  0.51260507  0.71398953    -0.61600
N862        N  0.07563010  0.53111739  0.74306863    -0.05500
N863        N  0.09923059  0.55583964  0.73873576    -0.58300
N864        N  0.07439636  0.50774151  0.72706348    -0.06900
N865        N  0.09671138  0.51667525  0.71122125    -0.61200
N866        N  0.49710311  0.53152599  0.74337437    -0.05800
N867        N  0.47094732  0.55414017  0.74030312    -0.58400
Mn868      Mn  0.03728469  0.96497064  0.72857473     1.20200
Mn869      Mn  0.03551840  0.53264361  0.76913302     1.10100
Cl870      Cl  0.03740156  0.96469017  0.77089073    -0.86300
C871        C  0.45481836  0.54191515  0.72193053     0.96000
C872        C  0.11242884  0.54641900  0.71897067     0.95800
C873        C  0.22216623  0.99757099  0.94589758     0.15600
C874        C  0.20129586  0.99651412  0.92686943    -0.33400
C875        C  0.20808708  0.51705181  0.90823792     0.20000
C876        C  0.24073257  0.53366111  0.90769018     0.02200
C877        C  0.26287610  0.53356974  0.92606348    -0.23200
C878        C  0.25075500  0.51635956  0.94498852     0.11400
S879        S  0.21326174  0.97524428  0.96975012    -0.06800
C880        C  0.25212629  0.99181793  0.98013289    -0.10300
C881        C  0.26891416  0.51273079  0.96421574    -0.26900
S882        S  0.25019465  0.55434789  0.88352066    -0.04100
C883        C  0.20968284  0.54058910  0.87395023    -0.17600
C884        C  0.19022532  0.52062718  0.88876622    -0.15600
H885        H  0.17705991  0.98134167  0.92639560     0.19800
H886        H  0.28842888  0.54640297  0.92564064     0.15900
H887        H  0.29531490  0.52275459  0.96700515     0.18400
H888        H  0.16391938  0.51052047  0.88577198     0.11700
C889        C  0.32722056  0.89717663  0.91050329     0.15600
C890        C  0.30437362  0.89905406  0.92860069    -0.33400
C891        C  0.31497544  0.91947509  0.94669014     0.20000
C892        C  0.34688870  0.93742494  0.94681809     0.02200
C893        C  0.36958451  0.93595609  0.92853137    -0.23200
C894        C  0.35898793  0.91539391  0.91039046     0.11400
S895        S  0.31969808  0.87249410  0.88745452    -0.06800
C896        C  0.35973216  0.88683040  0.87730468    -0.10300
C897        C  0.37764503  0.90983255  0.89126066    -0.26900
S898        S  0.35475615  0.96057919  0.97057061    -0.04100
C899        C  0.31445834  0.94615723  0.98022988    -0.17600
C900        C  0.29630143  0.92442029  0.96575162    -0.15600
H901        H  0.27951417  0.88490629  0.92866519     0.19800
H902        H  0.39450076  0.94999096  0.92850864     0.15900
H903        H  0.40333246  0.92113521  0.88785407     0.18400
H904        H  0.27044647  0.91331813  0.96891507     0.11700
C905        C  0.08619818  0.68304427  0.59479230     0.15600
C906        C  0.10744294  0.68443175  0.61371643    -0.33400
C907        C  0.11412823  0.65259155  0.62496915     0.20000
C908        C  0.10000521  0.62076625  0.61778751     0.02200
C909        C  0.07917165  0.61928322  0.59862807    -0.23200
C910        C  0.07266866  0.65115920  0.58727025     0.11400
S911        S  0.07467961  0.71888512  0.57916178    -0.06800
C912        C  0.05146017  0.69083174  0.56203628    -0.10300
C913        C  0.05301049  0.65538550  0.56832871    -0.26900
S914        S  0.10894748  0.58563303  0.63475765    -0.04100
C915        C  0.13233315  0.61398392  0.65162720    -0.17600
C916        C  0.13309247  0.64879813  0.64415341    -0.15600
H917        H  0.11798968  0.70936782  0.61956375     0.19800
H918        H  0.06811318  0.59444528  0.59299772     0.15900
H919        H  0.04030420  0.63393400  0.55956526     0.18400
H920        H  0.14521894  0.67058297  0.65292920     0.11700
C921        C  0.47245572  0.75649440  0.59532919     0.15600
C922        C  0.45115735  0.75484449  0.61408479    -0.33400
C923        C  0.44550042  0.78630515  0.62572357     0.20000
C924        C  0.46056681  0.81805957  0.61910706     0.02200
C925        C  0.48141841  0.81986557  0.60005767    -0.23200
C926        C  0.48694605  0.78832671  0.58832746     0.11400
S927        S  0.48264441  0.72101281  0.57928294    -0.06800
C928        C  0.99705674  0.74845983  0.56260244    -0.10300
C929        C  0.99885931  0.78361781  0.56913712    -0.26900
S930        S  0.45299284  0.85250134  0.63668841    -0.04100
C931        C  0.42903004  0.82379702  0.65297747    -0.17600
C932        C  0.42693685  0.78954423  0.64491791    -0.15600
H933        H  0.43985258  0.72998639  0.61954069     0.19800
H934        H  0.98960775  0.84463620  0.59438827     0.15900
H935        H  0.01357882  0.80403475  0.56061294     0.18400
H936        H  0.41441849  0.76761153  0.65337140     0.11700
C937        C  0.13580633  0.78111670  0.92249064     0.15600
C938        C  0.13695724  0.75901866  0.94107024    -0.33400
C939        C  0.10632121  0.75640685  0.95394536     0.20000
C940        C  0.07591230  0.77495243  0.94854500     0.02200
C941        C  0.07498975  0.79748243  0.93021819    -0.23200
C942        C  0.10558785  0.80011525  0.91735889     0.11400
S943        S  0.16907560  0.78571899  0.90374619    -0.06800
C944        C  0.14201556  0.81362890  0.88882550    -0.10300
C945        C  0.10915286  0.81918142  0.89826034    -0.26900
S946        S  0.04113635  0.76742463  0.96575115    -0.04100
C947        C  0.06790624  0.73927110  0.98049288    -0.17600
C948        C  0.10196288  0.73605349  0.97247270    -0.15600
H949        H  0.16045281  0.74400575  0.94506745     0.19800
H950        H  0.05122957  0.81186299  0.92593972     0.15900
H951        H  0.08819545  0.83465946  0.89087602     0.18400
H952        H  0.12225571  0.71960336  0.97976270     0.11700
C953        C  0.50013869  0.64938075  0.94712038     0.15600
C954        C  0.50057555  0.62722530  0.92862741    -0.33400
C955        C  0.46963811  0.62490854  0.91603054     0.20000
C956        C  0.43955668  0.64376790  0.92161087     0.02200
C957        C  0.43885038  0.66530333  0.94040953    -0.23200
C958        C  0.46982053  0.66767328  0.95298288     0.11400
S959        S  0.53535695  0.65669661  0.96403899    -0.06800
C960        C  0.50884664  0.68433065  0.97930835    -0.10300
C961        C  0.47456542  0.68752716  0.97164576    -0.26900
S962        S  0.40586982  0.63987747  0.90308784    -0.04100
C963        C  0.43252284  0.61244594  0.88762850    -0.17600
C964        C  0.46558514  0.60647198  0.89675312    -0.15600
H965        H  0.52423521  0.61298098  0.92399699     0.19800
H966        H  0.41544207  0.68017173  0.94476841     0.15900
H967        H  0.96055330  0.69887640  0.98116838     0.18400
H968        H  0.48634021  0.59117367  0.88903627     0.11700
C969        C  0.35618072  0.49425722  0.59310020     0.15600
C970        C  0.37948858  0.49765500  0.61094649    -0.33400
C971        C  0.36875147  0.51881084  0.62874885     0.20000
C972        C  0.33641073  0.53599868  0.62867283     0.02200
C973        C  0.31305252  0.53235588  0.61097118    -0.23200
C974        C  0.32363784  0.51106009  0.59330194     0.11400
S975        S  0.34665285  0.96030485  0.57517947    -0.06800
C976        C  0.31874653  0.98617478  0.55960145    -0.10300
C977        C  0.30440589  0.50419420  0.57472657    -0.26900
S978        S  0.32848799  0.56113343  0.65144139    -0.04100
C979        C  0.36901965  0.54815447  0.66144586    -0.17600
C980        C  0.38753774  0.52550009  0.64762836    -0.15600
H981        H  0.38500096  0.97077315  0.61728667     0.19800
H982        H  0.28770320  0.54559884  0.61095904     0.15900
H983        H  0.27821957  0.51448842  0.57155833     0.18400
H984        H  0.41349471  0.51486358  0.65107944     0.11700
C985        C  0.21676375  0.91484185  0.62833728     0.15600
C986        C  0.22352275  0.93931785  0.61152466    -0.33400
C987        C  0.24074042  0.92711114  0.59259704     0.20000
C988        C  0.25049747  0.89192466  0.59024608     0.02200
C989        C  0.24393682  0.86734167  0.60720003    -0.23200
C990        C  0.22710398  0.87974613  0.62636802     0.11400
S991        S  0.19595243  0.92473865  0.65247248    -0.06800
C992        C  0.20170439  0.88130578  0.66040557    -0.10300
C993        C  0.21882561  0.86038121  0.64487766    -0.26900
S994        S  0.27099608  0.88280788  0.56572674    -0.04100
C995        C  0.26717452  0.92711749  0.55899341    -0.17600
C996        C  0.25014189  0.94728647  0.57479982    -0.15600
H997        H  0.21583720  0.96682231  0.61317799     0.19800
H998        H  0.25179660  0.83988542  0.60559155     0.15900
H999        H  0.22452726  0.83245617  0.64692998     0.18400
H1000       H  0.24510104  0.97543921  0.57337142     0.11700
C1001       C  0.22130125  0.55706532  0.12417138     0.15600
C1002       C  0.24816109  0.55069397  0.10877404    -0.33400
C1003       C  0.24119204  0.52666261  0.09172218     0.20000
C1004       C  0.20860784  0.51025254  0.08980825     0.02200
C1005       C  0.18179731  0.51639685  0.10536221    -0.23200
C1006       C  0.18902566  0.53993560  0.12271542     0.11400
S1007       S  0.22519550  0.58441828  0.14634273    -0.06800
C1008       C  0.18325637  0.57202112  0.15434419    -0.10300
C1009       C  0.16707203  0.54826909  0.14006804    -0.26900
S1010       S  0.20496216  0.48324456  0.06731904    -0.04100
C1011       C  0.24990057  0.99246312  0.06162042    -0.17600
C1012       C  0.25724592  0.02514829  0.07090367    -0.15600
H1013       H  0.25407599  0.08361508  0.09871235     0.19800
H1014       H  0.15650670  0.50322214  0.10406933     0.15900
H1015       H  0.14109523  0.53701144  0.14254144     0.18400
H1016       H  0.27733213  0.04318136  0.06496252     0.11700
C1017       C  0.05291963  0.65515973  0.44750737     0.15600
C1018       C  0.05588142  0.63205703  0.42948535    -0.33400
C1019       C  0.07787479  0.64243454  0.41198541     0.20000
C1020       C  0.09607260  0.67430289  0.41246746     0.02200
C1021       C  0.09276494  0.69749414  0.43028721    -0.23200
C1022       C  0.07085143  0.68719395  0.44769355     0.11400
S1023       S  0.02823106  0.64753506  0.47064780    -0.06800
C1024       C  0.04206860  0.68811738  0.48035859    -0.10300
C1025       C  0.06459505  0.70622180  0.46641443    -0.26900
S1026       S  0.12225411  0.68176414  0.39012523    -0.04100
C1027       C  0.10849910  0.64161878  0.37975024    -0.17600
C1028       C  0.08471978  0.62361389  0.39312010    -0.15600
H1029       H  0.04188863  0.60704821  0.42917963     0.19800
H1030       H  0.10689832  0.72242719  0.43064635     0.15900
H1031       H  0.07571993  0.73206806  0.46984313     0.18400
H1032       H  0.07348062  0.59792958  0.38940109     0.11700
C1033       C  0.36024161  0.50392992  0.44869987     0.15600
C1034       C  0.38470315  0.51023163  0.43175405    -0.33400
C1035       C  0.37835947  0.53902222  0.41757225     0.20000
C1036       C  0.34918043  0.56072240  0.42029927     0.02200
C1037       C  0.32472102  0.55435208  0.43714449    -0.23200
C1038       C  0.33079086  0.52538809  0.45112362     0.11400
S1039       S  0.36324745  0.47081992  0.46791749    -0.06800
C1040       C  0.31788740  0.99116122  0.47808156    -0.10300
C1041       C  0.31668758  0.02712028  0.47309283    -0.26900
S1042       S  0.34528596  0.59334839  0.40096702    -0.04100
C1043       C  0.38296687  0.57729575  0.38861212    -0.17600
C1044       C  0.39796995  0.54850416  0.39946456    -0.15600
H1045       H  0.40749303  0.49327826  0.42960550     0.19800
H1046       H  0.30168041  0.57102348  0.43910561     0.15900
H1047       H  0.30308782  0.04679997  0.48288049     0.18400
H1048       H  0.42098787  0.53415903  0.39380837     0.11700
C1049       C  0.07846411  0.79152032  0.12896316     0.15600
C1050       C  0.05869315  0.79066896  0.10951336    -0.33400
C1051       C  0.06849012  0.76601968  0.09341980     0.20000
C1052       C  0.09646308  0.74285903  0.09660326     0.02200
C1053       C  0.11618831  0.74362730  0.11611922    -0.23200
C1054       C  0.10660167  0.76858708  0.13214183     0.11400
S1055       S  0.07142196  0.82029312  0.15012855    -0.06800
C1056       C  0.10702028  0.80156569  0.16339582    -0.10300
C1057       C  0.12304701  0.77414223  0.15193108    -0.26900
S1058       S  0.10355034  0.71441824  0.07519219    -0.04100
C1059       C  0.06864653  0.73419457  0.06188257    -0.17600
C1060       C  0.05253162  0.76127018  0.07344289    -0.15600
H1061       H  0.03678504  0.80863221  0.10696277     0.19800
H1062       H  0.13813472  0.72570742  0.11865415     0.15900
H1063       H  0.14589625  0.75949124  0.15757649     0.18400
H1064       H  0.02982062  0.77604709  0.06771202     0.11700
C1065       C  0.49941681  0.65287632  0.09499654     0.15600
C1066       C  0.50069235  0.63530986  0.11528945    -0.33400
C1067       C  0.47105843  0.63774213  0.12899048     0.20000
C1068       C  0.44127939  0.65655645  0.12271264     0.02200
C1069       C  0.43964464  0.67341767  0.10214663    -0.23200
C1070       C  0.46946328  0.67127072  0.08851294     0.11400
S1071       S  0.02439475  0.64150895  0.07178595    -0.06800
C1072       C  0.50758376  0.68170741  0.06048480    -0.10300
C1073       C  0.47384702  0.68751594  0.06848717    -0.26900
S1074       S  0.40900538  0.65807106  0.14231722    -0.04100
C1075       C  0.43588993  0.63292973  0.15909708    -0.17600
C1076       C  0.46797921  0.62382494  0.14973404    -0.15600
H1077       H  0.00816531  0.60351889  0.11342343     0.19800
H1078       H  0.41654937  0.68836472  0.09725169     0.15900
H1079       H  0.45420195  0.70391186  0.06049489     0.18400
H1080       H  0.48834831  0.60853652  0.15787370     0.11700
C1081       C  0.24685488  0.89426860  0.44772159     0.15600
C1082       C  0.23845316  0.86892147  0.43170658    -0.33400
C1083       C  0.21250738  0.87772618  0.41617082     0.20000
C1084       C  0.19545977  0.91021934  0.41664528     0.02200
C1085       C  0.20424043  0.93580117  0.43245346    -0.23200
C1086       C  0.23043833  0.92712078  0.44786725     0.11400
S1087       S  0.27631813  0.88800671  0.46864251    -0.06800
C1088       C  0.26696884  0.93034197  0.47740345    -0.10300
C1089       C  0.24222662  0.94813924  0.46474275    -0.26900
S1090       S  0.16498760  0.91585424  0.39624319    -0.04100
C1091       C  0.17593946  0.87432301  0.38657184    -0.17600
C1092       C  0.20148251  0.85704762  0.39894376    -0.15600
H1093       H  0.25149879  0.84339867  0.43140989     0.19800
H1094       H  0.19123572  0.96134650  0.43272141     0.15900
H1095       H  0.23252710  0.97453992  0.46821027     0.18400
H1096       H  0.21232271  0.83123741  0.39509472     0.11700
C1097       C  0.35206903  0.87753167  0.12016456     0.15600
C1098       C  0.33159416  0.87725277  0.10099367    -0.33400
C1099       C  0.33005151  0.90850248  0.08855560     0.20000
C1100       C  0.34823784  0.93876752  0.09479735     0.02200
C1101       C  0.36924407  0.93887129  0.11381981    -0.23200
C1102       C  0.37065772  0.90756449  0.12633279     0.11400
S1103       S  0.35489704  0.84315789  0.13835603    -0.06800
C1104       C  0.38152890  0.86935458  0.15452875    -0.10300
C1105       C  0.38801787  0.90287077  0.14592682    -0.26900
S1106       S  0.34205125  0.97422474  0.07763725    -0.04100
C1107       C  0.31480141  0.94781473  0.06201212    -0.17600
C1108       C  0.31099868  0.91350485  0.06967004    -0.15600
H1109       H  0.31688456  0.85389515  0.09622036     0.19800
H1110       H  0.38333495  0.96246846  0.11885530     0.15900
H1111       H  0.40301760  0.92338152  0.15414785     0.18400
H1112       H  0.29509315  0.89334221  0.06178784     0.11700
C1113       C  0.45122138  0.77192859  0.41339375     0.15600
C1114       C  0.45589730  0.74671498  0.43010795    -0.33400
C1115       C  0.47571826  0.75662302  0.44858236     0.20000
C1116       C  0.98507958  0.78979964  0.45015967     0.02200
C1117       C  0.98149125  0.81523806  0.43335090    -0.23200
C1118       C  0.46588882  0.80548590  0.41502849     0.11400
S1119       S  0.42834285  0.76470626  0.38966270    -0.06800
C1120       C  0.43920265  0.80707235  0.38141908    -0.10300
C1121       C  0.45926327  0.82578222  0.39662357    -0.26900
S1122       S  0.00766953  0.79573617  0.47429045    -0.04100
C1123       C  0.99759210  0.75253928  0.48122137    -0.17600
C1124       C  0.48397984  0.73543269  0.46621655    -0.15600
H1125       H  0.44483985  0.72036007  0.42866787     0.19800
H1126       H  0.99336986  0.84121329  0.43485919     0.15900
H1127       H  0.46835213  0.85274711  0.39438312     0.18400
H1128       H  0.47597718  0.70801396  0.46788410     0.11700
C1129       C  0.92879408  0.31901626  0.35794145     0.79900
N1130       N  0.94398742  0.34831476  0.34891246    -0.78400
C1131       C  0.93165295  0.36166741  0.32954383     0.82300
N1132       N  0.90386250  0.34594743  0.31939164    -0.78400
C1133       C  0.88863979  0.31677825  0.32831363     0.82400
N1134       N  0.90127635  0.30333281  0.34746832    -0.80100
C1135       C  0.88949424  0.36141527  0.17718417     0.79900
N1136       N  0.87147726  0.33535866  0.18777649    -0.78400
C1137       C  0.87736803  0.32898792  0.20943202     0.82300
N1138       N  0.90103620  0.34904280  0.22058356    -0.78400
C1139       C  0.92032148  0.37392776  0.20989486     0.82400
N1140       N  0.91410044  0.38051601  0.18829329    -0.80100
C1141       C  0.66284699  0.35945977  0.36609564     0.79900
N1142       N  0.68184061  0.33476165  0.35487296    -0.78400
C1143       C  0.67438742  0.32762736  0.33348950     0.82300
N1144       N  0.64869358  0.34610713  0.32311006    -0.78400
C1145       C  0.62880738  0.36994417  0.33424576     0.82400
N1146       N  0.63605524  0.37682723  0.35574211    -0.80100
C1147       C  0.93035292  0.12922975  0.18281277     0.79900
N1148       N  0.94591476  0.10061036  0.19239194    -0.78400
C1149       C  0.93433854  0.08840378  0.21215337     0.82300
N1150       N  0.90685629  0.10472020  0.22227268    -0.78400
C1151       C  0.89126081  0.13337898  0.21289812     0.82400
N1152       N  0.90310612  0.14560528  0.19319941    -0.80100
N1153       N  0.48017330  0.43289944  0.22981914    -0.06500
N1154       N  0.47018859  0.41092714  0.21406115    -0.58600
N1155       N  0.96065081  0.01488819  0.24406952    -0.06200
N1156       N  0.93866726  0.04155995  0.24090557    -0.60700
N1157       N  0.48516121  0.01637241  0.23025168    -0.05800
N1158       N  0.48022044  0.04271703  0.21629120    -0.58600
N1159       N  0.95861497  0.43537250  0.24573743    -0.05400
N1160       N  0.93372842  0.41179406  0.24184269    -0.61100
C1161       C  0.94329452  0.39749891  0.22240283     0.95700
C1162       C  0.95091894  0.05732439  0.22243250     0.95500
N1163       N  0.48401405  0.01535943  0.31324193    -0.06700
N1164       N  0.47620950  0.03898331  0.32852870    -0.59200
N1165       N  0.95910444  0.43477953  0.29762873    -0.04800
N1166       N  0.93635605  0.40878291  0.30090458    -0.60400
N1167       N  0.48292802  0.43225874  0.31359563    -0.06700
N1168       N  0.47669556  0.40697043  0.32813245    -0.59400
N1169       N  0.95990912  0.01470767  0.29594241    -0.04400
N1170       N  0.93539541  0.03863267  0.29993954    -0.60500
Mn1171     Mn  0.95875547  0.47586185  0.27152152     1.18400
C1172       C  0.94490642  0.05237032  0.31954194     0.97800
C1173       C  0.94840774  0.39266483  0.31935076     0.98400
N1174       N  0.56899782  0.01364412  0.22888403    -0.06700
N1175       N  0.57891599  0.03541856  0.21293916    -0.63000
N1176       N  0.58844801  0.42828487  0.24538702    -0.05500
N1177       N  0.61096372  0.40231609  0.24156794    -0.63700
N1178       N  0.56391587  0.42891035  0.23003758    -0.06200
N1179       N  0.56928359  0.40352748  0.21546317    -0.63300
N1180       N  0.59239854  0.01385614  0.24486715    -0.05100
N1181       N  0.61817282  0.03619901  0.24041550    -0.64000
Mn1182     Mn  0.52420748  0.47124525  0.22922816     1.10700
C1183       C  0.60936194  0.04963514  0.22059365     0.99000
C1184       C  0.59861647  0.38708804  0.22293800     0.99100
N1185       N  0.56676057  0.43115501  0.31369064    -0.06200
N1186       N  0.57583312  0.40893865  0.32958694    -0.61600
N1187       N  0.59141560  0.01514145  0.29685665    -0.05500
N1188       N  0.61382282  0.04146499  0.29997103    -0.58300
N1189       N  0.56711887  0.01522810  0.31233861    -0.06900
N1190       N  0.57246503  0.04139664  0.32630422    -0.61200
N1191       N  0.58977711  0.42976095  0.29751397    -0.05800
N1192       N  0.61441410  0.40612902  0.30179767    -0.58400
Mn1193     Mn  0.52521858  0.47207310  0.31389519     1.20200
Mn1194     Mn  0.59116562  0.46970601  0.27124880     1.10100
Cl1195     Cl  0.52465591  0.47151123  0.27155889    -0.86300
C1196       C  0.60530057  0.39316893  0.32169185     0.96000
C1197       C  0.60159601  0.05750475  0.31836791     0.95800
C1198       C  0.62207742  0.31910548  0.18127130     0.79900
N1199       N  0.60457515  0.34560356  0.19186770    -0.78400
C1200       C  0.61655877  0.35791838  0.21153528     0.82300
N1201       N  0.64579460  0.34341605  0.22069246    -0.78400
C1202       C  0.66310875  0.31671448  0.21045941     0.82400
N1203       N  0.65135168  0.30471097  0.19068989    -0.80100
C1204       C  0.89047571  0.08889089  0.36457014     0.79900
N1205       N  0.91552763  0.06995804  0.35365699    -0.78400
C1206       C  0.92193765  0.07623957  0.33202419     0.82300
N1207       N  0.90246030  0.10079272  0.32113993    -0.78400
C1208       C  0.87840963  0.12075782  0.33205676     0.82400
N1209       N  0.87224869  0.11454890  0.35371600    -0.80100
C1210       C  0.62050573  0.13048726  0.35720689     0.79900
N1211       N  0.64851332  0.14613358  0.34715966    -0.78400
C1212       C  0.66155210  0.13279120  0.32807287     0.82300
N1213       N  0.64629314  0.10392988  0.31887201    -0.78400
C1214       C  0.61810593  0.08837532  0.32863287     0.82400
N1215       N  0.60537129  0.10150605  0.34788300    -0.80100
C1216       C  0.66596778  0.08370767  0.17566254     0.79900
N1217       N  0.68360269  0.11009457  0.18624553    -0.78400
C1218       C  0.67664885  0.11719981  0.20772524     0.82300
N1219       N  0.65220043  0.09764689  0.21861727    -0.78400
C1220       C  0.63325889  0.07247251  0.20795333     0.82400
N1221       N  0.64067735  0.06503662  0.18658661    -0.80100
N1222       N  0.81611742  0.26547516  0.31147926    -0.06500
N1223       N  0.84232181  0.27060343  0.32538203    -0.58600
N1224       N  0.73449143  0.29001450  0.29637153    -0.06200
N1225       N  0.71098428  0.31475525  0.30083521    -0.60700
N1226       N  0.73565225  0.26644229  0.31232189    -0.05800
N1227       N  0.71336433  0.27506110  0.32816912    -0.58600
N1228       N  0.81581468  0.29022378  0.29620576    -0.05400
N1229       N  0.84205263  0.31271673  0.29937929    -0.61100
C1230       C  0.85829163  0.30004394  0.31760446     0.95700
C1231       C  0.69785042  0.30493569  0.32057695     0.95500
N1232       N  0.73479822  0.26496497  0.22854705    -0.06700
N1233       N  0.70982240  0.27068133  0.21382532    -0.59200
N1234       N  0.81509363  0.29076905  0.24460481    -0.04800
N1235       N  0.83888912  0.31550865  0.24091566    -0.60400
N1236       N  0.81516103  0.26722455  0.22867307    -0.06700
N1237       N  0.83862135  0.27596342  0.21351177    -0.59400
N1238       N  0.73408608  0.28944071  0.24398077    -0.04400
N1239       N  0.70839270  0.31225456  0.24007670    -0.60500
Mn1240     Mn  0.77469541  0.29106687  0.27029302     1.18400
C1241       C  0.69355634  0.30016892  0.22125603     0.97800
C1242       C  0.85352994  0.30579821  0.22162972     0.98400
N1243       N  0.73512673  0.18292818  0.31159904    -0.06700
N1244       N  0.70882501  0.17812313  0.32549075    -0.63000
N1245       N  0.81638650  0.15820117  0.29624466    -0.05500
N1246       N  0.84043145  0.13377297  0.30016981    -0.63700
N1247       N  0.81579798  0.18176071  0.31215156    -0.06200
N1248       N  0.83904300  0.17334725  0.32752901    -0.63300
N1249       N  0.73501486  0.15836608  0.29623570    -0.05100
N1250       N  0.70843960  0.13627695  0.29938056    -0.64000
Mn1251     Mn  0.77570283  0.22412170  0.31249667     1.10700
C1252       C  0.69240250  0.14903374  0.31763926     0.99000
C1253       C  0.85453760  0.14367832  0.31958512     0.99100
N1254       N  0.81746099  0.18356125  0.22925102    -0.06200
N1255       N  0.84401475  0.17896481  0.21550045    -0.61600
N1256       N  0.73628296  0.15720857  0.24419810    -0.05500
N1257       N  0.71335054  0.13183935  0.23998689    -0.58300
N1258       N  0.73671413  0.18062620  0.22814358    -0.06900
N1259       N  0.71447327  0.17114001  0.21241755    -0.61200
N1260       N  0.81766924  0.15900820  0.24464983    -0.05800
N1261       N  0.84456411  0.13723531  0.24172501    -0.58400
Mn1262     Mn  0.77596730  0.22406596  0.22801809     1.20200
Mn1263     Mn  0.77625617  0.15722759  0.27033860     1.10100
Cl1264     Cl  0.77550820  0.22413720  0.27027379    -0.86300
C1265       C  0.86072215  0.15007431  0.22352062     0.96000
C1266       C  0.69974599  0.14095541  0.22026041     0.95800
C1267       C  0.77535108  0.45356913  0.49881621     0.01900
C1268       C  0.80509158  0.47632162  0.49893894     0.01900
C1269       C  0.82088172  0.48542190  0.51902610    -0.18600
C1270       C  0.80749965  0.47278041  0.53902796     0.01900
C1271       C  0.77805877  0.44981779  0.53907038     0.01900
C1272       C  0.76186771  0.44095019  0.51898810    -0.18600
H1273       H  0.73979946  0.42267665  0.51899214     0.03900
H1274       H  0.83593965  0.01326390  0.51791702     0.03900
C1275       C  0.55066896  0.21658923  0.03994204     0.01900
C1276       C  0.52247461  0.19213960  0.03921879     0.01900
C1277       C  0.01428714  0.18365562  0.01980367    -0.18600
C1278       C  0.52275709  0.19457249  0.99902831     0.01900
C1279       C  0.55064283  0.21952170  0.99976332     0.01900
C1280       C  0.56469450  0.22967902  0.02019415    -0.18600
H1281       H  0.58561318  0.24926018  0.02076814     0.03900
H1282       H  0.99397142  0.16341412  0.01990625     0.03900
C1283       C  0.51718119  0.23657260  0.50243187     0.01900
C1284       C  0.53745662  0.20508309  0.50207152     0.01900
C1285       C  0.54880146  0.18974944  0.52195735    -0.18600
C1286       C  0.54060724  0.20541072  0.54229996     0.01900
C1287       C  0.51920302  0.23617027  0.54264127     0.01900
C1288       C  0.50849738  0.25184438  0.52271951    -0.18600
H1289       H  0.98820644  0.27365166  0.52173331     0.03900
H1290       H  0.56554663  0.16646951  0.52153363     0.03900
C1291       C  0.79698660  0.46248597  0.04139027     0.01900
C1292       C  0.76698529  0.48465664  0.04087672     0.01900
C1293       C  0.75370202  0.49589233  0.02049673    -0.18600
C1294       C  0.76949028  0.48500820  0.00073833     0.01900
C1295       C  0.79908011  0.46218808  0.00121209     0.01900
C1296       C  0.81278296  0.45147864  0.02159651    -0.18600
H1297       H  0.83552115  0.43406046  0.02207836     0.03900
H1298       H  0.72508358  0.00809731  0.02146766     0.03900
C1299       C  0.87130784  0.37712267  0.85546651     0.79900
N1300       N  0.85628221  0.34825365  0.84580204    -0.78400
C1301       C  0.86978891  0.33474495  0.82684935     0.82300
N1302       N  0.89827876  0.35037439  0.81746151    -0.78400
C1303       C  0.91341966  0.37927674  0.82676980     0.82400
N1304       N  0.90005497  0.39249773  0.84589452    -0.80100
C1305       C  0.92345017  0.10211143  0.86522599     0.79900
N1306       N  0.94295536  0.07763711  0.85419542    -0.78400
C1307       C  0.93766714  0.07208419  0.83239310     0.82300
N1308       N  0.91341872  0.09191482  0.82143790    -0.78400
C1309       C  0.89280608  0.11545490  0.83243920     0.82400
N1310       N  0.89805440  0.12064129  0.85431761    -0.80100
C1311       C  0.69227238  0.05686604  0.85487926     0.79900
N1312       N  0.70863768  0.08389401  0.84432155    -0.78400
C1313       C  0.69639876  0.09584132  0.82476958     0.82300
N1314       N  0.66756761  0.08055216  0.81558312    -0.78400
C1315       C  0.65119634  0.05314598  0.82587507     0.82400
N1316       N  0.66341785  0.04147159  0.84563725    -0.80100
C1317       C  0.64584423  0.32371942  0.86560966     0.79900
N1318       N  0.67112424  0.30527723  0.85455605    -0.78400
C1319       C  0.67556690  0.31012909  0.83256734     0.82300
N1320       N  0.65458683  0.33330228  0.82164773    -0.78400
C1321       C  0.63045141  0.35299148  0.83262579     0.82400
N1322       N  0.62566822  0.34778273  0.85456192    -0.80100
C1323       C  0.64671686  0.10045591  0.67451456     0.79900
N1324       N  0.67238822  0.11940305  0.68497725    -0.78400
C1325       C  0.68019638  0.11267236  0.70645101     0.82300
N1326       N  0.66117941  0.08802441  0.71763129    -0.78400
C1327       C  0.63637038  0.06829680  0.70720855     0.82400
N1328       N  0.62916759  0.07465916  0.68569049    -0.80100
C1329       C  0.88515779  0.06345612  0.68269716     0.79900
N1330       N  0.86901564  0.09084127  0.69305979    -0.78400
C1331       C  0.88044285  0.10217441  0.71297600     0.82300
N1332       N  0.90838769  0.08605476  0.72267589    -0.78400
C1333       C  0.92457116  0.05836425  0.71260723     0.82400
N1334       N  0.91296599  0.04709306  0.69258509    -0.80100
N1335       N  0.82731505  0.25483956  0.72789064    -0.06500
N1336       N  0.83551771  0.27774178  0.71222931    -0.58600
N1337       N  0.85188287  0.17487816  0.74466818    -0.06200
N1338       N  0.87479526  0.14888127  0.74181108    -0.60700
N1339       N  0.82756996  0.17403070  0.72917031    -0.05800
N1340       N  0.83355085  0.14773725  0.71541547    -0.58600
N1341       N  0.85041734  0.25649169  0.74400773    -0.05400
N1342       N  0.87443027  0.28089357  0.73983643    -0.61100
C1343       C  0.86467474  0.29405015  0.72008282     0.95700
C1344       C  0.86292827  0.13225784  0.72353383     0.95500
N1345       N  0.82906543  0.17578320  0.81220712    -0.06700
N1346       N  0.83862484  0.15306258  0.82774070    -0.59200
N1347       N  0.84831423  0.25824732  0.79611877    -0.04800
N1348       N  0.86863843  0.28633163  0.79892613    -0.60400
N1349       N  0.82375318  0.25716854  0.81144519    -0.06700
N1350       N  0.82688697  0.28441832  0.82496283    -0.59400
N1351       N  0.85275311  0.17637364  0.79641357    -0.04400
N1352       N  0.87838875  0.15367622  0.80056898    -0.60500
Mn1353     Mn  0.85179917  0.21659879  0.77031494     1.18400
C1354       C  0.86919426  0.13912543  0.82003167     0.97800
C1355       C  0.85495186  0.30240890  0.81691965     0.98400
N1356       N  0.74327982  0.17349991  0.72706871    -0.06700
N1357       N  0.73396572  0.15126897  0.71120763    -0.63000
N1358       N  0.71968811  0.25457017  0.74327732    -0.05500
N1359       N  0.69743790  0.28101116  0.74006330    -0.63700
N1360       N  0.74420019  0.25464891  0.72792439    -0.06200
N1361       N  0.73917803  0.28101463  0.71396996    -0.63300
N1362       N  0.71976543  0.17287180  0.74296084    -0.05100
N1363       N  0.69464590  0.14976520  0.73860256    -0.64000
Mn1364     Mn  0.78567918  0.21410120  0.72739323     1.10700
C1365       C  0.70380389  0.13631154  0.71887633     0.99000
C1366       C  0.70999085  0.29724529  0.72177776     0.99100
N1367       N  0.74034600  0.25202445  0.81172901    -0.06200
N1368       N  0.72993935  0.27333860  0.82773442    -0.61600
N1369       N  0.72102542  0.17112589  0.79439426    -0.05500
N1370       N  0.69995320  0.14352312  0.79665550    -0.58300
N1371       N  0.74519570  0.17129979  0.80997782    -0.06900
N1372       N  0.74094132  0.14393202  0.82322534    -0.61200
N1373       N  0.71736044  0.25242342  0.79550980    -0.05800
N1374       N  0.69125012  0.27437524  0.79995463    -0.58400
Mn1375     Mn  0.78458395  0.21398990  0.81202949     1.20200
Mn1376     Mn  0.71863805  0.21289173  0.76905948     1.10100
Cl1377     Cl  0.78518415  0.21440208  0.76970719    -0.86300
C1378       C  0.69953075  0.28738039  0.81997636     0.96000
C1379       C  0.71277946  0.12685142  0.81463098     0.95800
C1380       C  0.91448063  0.33541946  0.67447546     0.74300
N1381       N  0.93261810  0.36097695  0.68543930    -0.78400
C1382       C  0.92809466  0.36526178  0.70742374     0.82300
N1383       N  0.90568884  0.34362849  0.71848705    -0.78400
C1384       C  0.88637375  0.31907369  0.70758131     0.82400
N1385       N  0.89122667  0.31458462  0.68562926    -0.80100
C1386       C  0.68856581  0.36863909  0.68187197     0.79900
N1387       N  0.70523459  0.34088018  0.69175959    -0.78400
C1388       C  0.69311563  0.32795255  0.71130377     0.82300
N1389       N  0.66449626  0.34294381  0.72096935    -0.78400
C1390       C  0.64806174  0.37081722  0.71133412     0.82400
N1391       N  0.66003253  0.38340847  0.69178846    -0.80100
N1392       N  0.98966129  0.42668076  0.81072147    -0.06500
N1393       N  0.96282040  0.42313300  0.82444666    -0.58600
N1394       N  0.57337239  0.39574497  0.79552164    -0.06200
N1395       N  0.59424257  0.36880024  0.80019701    -0.60700
N1396       N  0.57389756  0.41923244  0.81150119    -0.05800
N1397       N  0.59471361  0.40826986  0.82762217    -0.58600
N1398       N  0.98859917  0.40215803  0.79532926    -0.05400
N1399       N  0.96086166  0.38146189  0.79828949    -0.61100
C1400       C  0.94504286  0.39486092  0.81646792     0.95700
C1401       C  0.60747593  0.37700987  0.82015906     0.95500
N1402       N  0.57584282  0.42265437  0.72802144    -0.06700
N1403       N  0.60189088  0.41706913  0.71408608    -0.59200
N1404       N  0.99041705  0.40140393  0.74342527    -0.04800
N1405       N  0.96580965  0.37762197  0.73943135    -0.60400
N1406       N  0.99191148  0.42484417  0.72741886    -0.06700
N1407       N  0.96867438  0.41696084  0.71193300    -0.59400
N1408       N  0.57515523  0.39789317  0.74332545    -0.04400
N1409       N  0.60105230  0.37498504  0.74010398    -0.60500
Mn1410     Mn  0.53372986  0.39775173  0.76927358     1.18400
C1411       C  0.61740518  0.38738255  0.72182471     0.97800
C1412       C  0.95228524  0.38776090  0.71989699     0.98400
N1413       N  0.57521075  0.00512633  0.81090700    -0.06700
N1414       N  0.60226165  0.00909567  0.82438041    -0.63000
N1415       N  0.99867674  0.03212808  0.79665936    -0.05500
N1416       N  0.97564369  0.05757021  0.80055171    -0.63700
N1417       N  0.99868353  0.00877866  0.81275236    -0.06200
N1418       N  0.97598256  0.01839808  0.82818548    -0.63300
N1419       N  0.57566679  0.02962729  0.79545345    -0.05100
N1420       N  0.60319746  0.05063662  0.79803562    -0.64000
Mn1421     Mn  0.53662416  0.46438319  0.81156323     1.10700
C1422       C  0.61946437  0.03751654  0.81609633     0.99000
C1423       C  0.96149558  0.04859470  0.82013785     0.99100
N1424       N  0.99683330  0.00638975  0.72944083    -0.06200
N1425       N  0.97084108  0.01183007  0.71538988    -0.61600
N1426       N  0.57485513  0.03121311  0.74372483    -0.05500
N1427       N  0.59905745  0.05546537  0.73961139    -0.58300
N1428       N  0.57381508  0.00767891  0.72780996    -0.06900
N1429       N  0.59688596  0.01588787  0.71228977    -0.61200
N1430       N  0.99705705  0.03094098  0.74480333    -0.05800
N1431       N  0.97096611  0.05357051  0.74156433    -0.58400
Mn1432     Mn  0.53644068  0.46507539  0.72691922     1.20200
Mn1433     Mn  0.53448847  0.03235896  0.76967328     1.10100
Cl1434     Cl  0.53639925  0.46468129  0.76923784    -0.86300
C1435       C  0.95490108  0.04124700  0.72319414     0.96000
C1436       C  0.61282572  0.04541895  0.72009533     0.95800
C1437       C  0.72129254  0.50571523  0.94691463     0.15600
C1438       C  0.69774948  0.50722990  0.92917729    -0.33400
C1439       C  0.70289760  0.02265301  0.91101965     0.20000
C1440       C  0.73504925  0.04022609  0.91089358     0.02200
C1441       C  0.75725024  0.03959420  0.92924479    -0.23200
C1442       C  0.74591890  0.02043477  0.94762911     0.11400
S1443       S  0.71214119  0.48703420  0.97185182    -0.06800
C1444       C  0.75451159  0.49730294  0.97970524    -0.10300
C1445       C  0.76482432  0.01495979  0.96644528    -0.26900
S1446       S  0.74452307  0.06148599  0.88693011    -0.04100
C1447       C  0.70485564  0.04636794  0.87678368    -0.17600
C1448       C  0.68545560  0.02591378  0.89136954    -0.15600
H1449       H  0.67137481  0.49639997  0.93048345     0.19800
H1450       H  0.78256718  0.05290048  0.92904920     0.15900
H1451       H  0.79116890  0.02502015  0.96938546     0.18400
H1452       H  0.65977624  0.01461973  0.88793292     0.11700
C1453       C  0.82525159  0.40075161  0.91019310     0.15600
C1454       C  0.80259913  0.40284196  0.92840626    -0.33400
C1455       C  0.81412519  0.42210491  0.94678967     0.20000
C1456       C  0.84679656  0.43861471  0.94710676     0.02200
C1457       C  0.86928159  0.43695549  0.92872469    -0.23200
C1458       C  0.85771103  0.41768249  0.91026908     0.11400
S1459       S  0.81672915  0.37723971  0.88677251    -0.06800
C1460       C  0.85729671  0.39032082  0.87674704    -0.10300
C1461       C  0.87604223  0.41216916  0.89099962    -0.26900
S1462       S  0.85566680  0.46076844  0.97108963    -0.04100
C1463       C  0.81464266  0.44819041  0.98054938    -0.17600
C1464       C  0.79560277  0.42751822  0.96588757    -0.15600
H1465       H  0.77715359  0.38979067  0.92831077     0.19800
H1466       H  0.89473920  0.44997161  0.92883937     0.15900
H1467       H  0.90217926  0.42250799  0.88774829     0.18400
H1468       H  0.76911967  0.41785369  0.96885118     0.11700
C1469       C  0.59208019  0.18216948  0.59524143     0.15600
C1470       C  0.61410966  0.18228716  0.61381247    -0.33400
C1471       C  0.61786111  0.15052626  0.62563627     0.20000
C1472       C  0.60005653  0.12005647  0.61942790     0.02200
C1473       C  0.57833434  0.11979833  0.60065653    -0.23200
C1474       C  0.57494502  0.15151005  0.58864030     0.11400
S1475       S  0.58396916  0.21813988  0.57890487    -0.06800
C1476       C  0.55760319  0.19164117  0.56267286    -0.10300
C1477       C  0.55538467  0.15668359  0.56978768    -0.26900
S1478       S  0.60621796  0.08501176  0.63691334    -0.04100
C1479       C  0.63352411  0.11151665  0.65261441    -0.17600
C1480       C  0.63742981  0.14567947  0.64445230    -0.15600
H1481       H  0.62759091  0.20620603  0.61890958     0.19800
H1482       H  0.56447390  0.09600530  0.59573702     0.15900
H1483       H  0.54017015  0.13626951  0.56164166     0.18400
H1484       H  0.65237028  0.16644182  0.65246585     0.11700
C1485       C  0.96683707  0.25700291  0.59445683     0.15600
C1486       C  0.94526903  0.25613073  0.61312853    -0.33400
C1487       C  0.94035535  0.28786391  0.62464644     0.20000
C1488       C  0.95632359  0.31913253  0.61797051     0.02200
C1489       C  0.97732157  0.32019120  0.59896311    -0.23200
C1490       C  0.98216080  0.28839431  0.58738170     0.11400
S1491       S  0.97654257  0.22106480  0.57864256    -0.06800
C1492       C  0.50364562  0.24942642  0.56334988    -0.10300
C1493       C  0.50236009  0.28498707  0.56910147    -0.26900
S1494       S  0.94985498  0.35386173  0.63552939    -0.04100
C1495       C  0.92520534  0.32594009  0.65194224    -0.17600
C1496       C  0.92196721  0.29175611  0.64386715    -0.15600
H1497       H  0.93332425  0.23162342  0.61866508     0.19800
H1498       H  0.48724402  0.34653424  0.59277338     0.15900
H1499       H  0.51477214  0.30619307  0.55991541     0.18400
H1500       H  0.90890755  0.27020777  0.65238245     0.11700
C1501       C  0.63183878  0.28503720  0.92354229     0.15600
C1502       C  0.63368869  0.26479610  0.94291542    -0.33400
C1503       C  0.60230468  0.25946706  0.95476401     0.20000
C1504       C  0.57062474  0.27406108  0.94779505     0.02200
C1505       C  0.56904681  0.29530378  0.92889464    -0.23200
C1506       C  0.60028116  0.30024358  0.91689882     0.11400
S1507       S  0.66569693  0.29065429  0.90525538    -0.06800
C1508       C  0.63703675  0.31381886  0.88850116    -0.10300
C1509       C  0.60327689  0.31735013  0.89706273    -0.26900
S1510       S  0.53507666  0.26270129  0.96354346    -0.04100
C1511       C  0.56312945  0.23806161  0.97977362    -0.17600
C1512       C  0.59823616  0.23914681  0.97335102    -0.15600
H1513       H  0.65819817  0.25257481  0.94804781     0.19800
H1514       H  0.54426065  0.30641595  0.92332061     0.15900
H1515       H  0.58138127  0.32960852  0.88849825     0.18400
H1516       H  0.61946030  0.22535887  0.98166619     0.11700
C1517       C  0.00399399  0.14591206  0.94681512     0.15600
C1518       C  0.00329464  0.12429225  0.92808512    -0.33400
C1519       C  0.97200421  0.12338365  0.91574994     0.20000
C1520       C  0.94272432  0.14317205  0.92172888     0.02200
C1521       C  0.94318756  0.16425562  0.94069989    -0.23200
C1522       C  0.97443400  0.16510448  0.95306357     0.11400
S1523       S  0.03975282  0.15155850  0.96358017    -0.06800
C1524       C  0.01440756  0.17967428  0.97927562    -0.10300
C1525       C  0.98016546  0.18426466  0.97186125    -0.26900
S1526       S  0.90843276  0.14081371  0.90353154    -0.04100
C1527       C  0.93372784  0.11272409  0.88769470    -0.17600
C1528       C  0.96680414  0.10544384  0.89643284    -0.15600
H1529       H  0.02632997  0.10932543  0.92312158     0.19800
H1530       H  0.92041953  0.17984739  0.94538903     0.15900
H1531       H  0.45333225  0.19258647  0.98148088     0.18400
H1532       H  0.98680250  0.08951423  0.88843484     0.11700
C1533       C  0.85670823  0.99818939  0.59278274     0.15600
C1534       C  0.87754153  0.99721267  0.61189451    -0.33400
C1535       C  0.87046219  0.02231519  0.62836487     0.20000
C1536       C  0.84401721  0.04737532  0.62577655     0.02200
C1537       C  0.82354447  0.04863307  0.60660475    -0.23200
C1538       C  0.83042430  0.02345963  0.59024826     0.11400
S1539       S  0.86633406  0.47929842  0.56708895    -0.06800
C1540       C  0.82291672  0.48603898  0.55977151    -0.10300
C1541       C  0.81218223  0.01945424  0.57093049    -0.26900
S1542       S  0.83885378  0.07501457  0.64767236    -0.04100
C1543       C  0.87278746  0.05281738  0.66061962    -0.17600
C1544       C  0.88717950  0.02533152  0.64836605    -0.15600
H1545       H  0.90915412  0.49805754  0.60670419     0.19800
H1546       H  0.80272488  0.06804570  0.60468223     0.15900
H1547       H  0.78996618  0.03562473  0.56594597     0.18400
H1548       H  0.90861720  0.00847913  0.65378496     0.11700
C1549       C  0.70459578  0.40856771  0.62436387     0.15600
C1550       C  0.70171083  0.42583538  0.60397005    -0.33400
C1551       C  0.73045272  0.42367735  0.58947729     0.20000
C1552       C  0.76084771  0.40535360  0.59515624     0.02200
C1553       C  0.76358871  0.38776623  0.61546721    -0.23200
C1554       C  0.73470385  0.38967407  0.62988751     0.11400
S1555       S  0.67278772  0.40843081  0.64423066    -0.06800
C1556       C  0.69990311  0.38199435  0.66008666    -0.10300
C1557       C  0.73211646  0.37416581  0.65033576    -0.26900
S1558       S  0.79345300  0.40736114  0.57581399    -0.04100
C1559       C  0.76586649  0.43311670  0.55984082    -0.17600
C1560       C  0.73300992  0.43933514  0.56908814    -0.15600
H1561       H  0.67815056  0.44050380  0.59964807     0.19800
H1562       H  0.78729596  0.37341601  0.61988814     0.15900
H1563       H  0.75252939  0.35806951  0.65779728     0.18400
H1564       H  0.71268843  0.45558990  0.56166658     0.11700
C1565       C  0.70670329  0.06356067  0.11908640     0.15600
C1566       C  0.72469943  0.06433742  0.09892302    -0.33400
C1567       C  0.72948647  0.03208848  0.08782005     0.20000
C1568       C  0.71732701  0.00036424  0.09651699     0.02200
C1569       C  0.69895226  0.99965296  0.11654458    -0.23200
C1570       C  0.69371670  0.03197868  0.12748813     0.11400
S1571       S  0.69955379  0.09952482  0.13560072    -0.06800
C1572       C  0.67810095  0.07187284  0.15380167    -0.10300
C1573       C  0.67689496  0.03666102  0.14725256    -0.26900
S1574       S  0.72664500  0.96401131  0.08077589    -0.04100
C1575       C  0.74883844  0.49607566  0.06126249    -0.17600
C1576       C  0.74829295  0.53100109  0.06820859    -0.15600
H1577       H  0.73615237  0.59060060  0.09391943     0.19800
H1578       H  0.68926691  0.97496605  0.12334316     0.15900
H1579       H  0.66559244  0.01534741  0.15689608     0.18400
H1580       H  0.76142622  0.55260258  0.05980105     0.11700
C1581       C  0.55968007  0.15617077  0.44836982     0.15600
C1582       C  0.56267353  0.13251070  0.43065714    -0.33400
C1583       C  0.58074031  0.14426426  0.41181484     0.20000
C1584       C  0.59516552  0.17799580  0.41070714     0.02200
C1585       C  0.59177026  0.20171458  0.42824128    -0.23200
C1586       C  0.57383772  0.18998510  0.44701065     0.11400
S1587       S  0.53915234  0.14723959  0.47284862    -0.06800
C1588       C  0.54941629  0.18970594  0.48102203    -0.10300
C1589       C  0.56812228  0.20924773  0.46567547    -0.26900
S1590       S  0.61752655  0.18680254  0.38698783    -0.04100
C1591       C  0.60732098  0.14462887  0.37826500    -0.17600
C1592       C  0.58730225  0.12506877  0.39307942    -0.15600
H1593       H  0.55168634  0.10606615  0.43158244     0.19800
H1594       H  0.60296828  0.22808275  0.42738568     0.15900
H1595       H  0.57669784  0.23636001  0.46800858     0.18400
H1596       H  0.57891487  0.09794736  0.39054972     0.11700
C1597       C  0.84853238  0.00486074  0.44541159     0.15600
C1598       C  0.87096511  0.00741036  0.42716952    -0.33400
C1599       C  0.86928882  0.03838875  0.41446964     0.20000
C1600       C  0.84604239  0.06554618  0.41952539     0.02200
C1601       C  0.82378660  0.06316533  0.43792648    -0.23200
C1602       C  0.82572001  0.03227549  0.45078198     0.11400
S1603       S  0.84700816  0.96956097  0.46296011    -0.06800
C1604       C  0.82001958  0.49177914  0.47857178    -0.10300
C1605       C  0.80237935  0.51643635  0.46566508    -0.26900
S1606       S  0.84660502  0.09990377  0.40118184    -0.04100
C1607       C  0.87867236  0.07749980  0.38660877    -0.17600
C1608       C  0.88834382  0.04526545  0.39579764    -0.15600
H1609       H  0.88889633  0.98610107  0.42301259     0.19800
H1610       H  0.80566398  0.08435844  0.44198078     0.15900
H1611       H  0.77579626  0.52570447  0.46874649     0.18400
H1612       H  0.90709626  0.02696945  0.38861911     0.11700
C1613       C  0.57549267  0.28770935  0.12839292     0.15600
C1614       C  0.55131864  0.27964586  0.11164925    -0.33400
C1615       C  0.56345403  0.25963682  0.09373385     0.20000
C1616       C  0.59823404  0.24844246  0.09237844     0.02200
C1617       C  0.62233644  0.25618030  0.10925587    -0.23200
C1618       C  0.61008068  0.27587623  0.12731779     0.11400
S1619       S  0.56597497  0.31188665  0.15140465    -0.06800
C1620       C  0.60885536  0.30544332  0.15999908    -0.10300
C1621       C  0.62929101  0.28574785  0.14548658    -0.26900
S1622       S  0.60794165  0.22546569  0.06888595    -0.04100
C1623       C  0.56452766  0.23040414  0.06105550    -0.17600
C1624       C  0.54395155  0.24919470  0.07586803    -0.15600
H1625       H  0.52421350  0.28860460  0.11254048     0.19800
H1626       H  0.64945177  0.24726406  0.10834380     0.15900
H1627       H  0.65677864  0.27909432  0.14806221     0.18400
H1628       H  0.51629172  0.25529357  0.07350309     0.11700
C1629       C  0.99867767  0.15179140  0.09345113     0.15600
C1630       C  0.99535064  0.12987828  0.11195417    -0.33400
C1631       C  0.97246716  0.14087460  0.12873508     0.20000
C1632       C  0.95331059  0.17206392  0.12708185     0.02200
C1633       C  0.95655684  0.19398599  0.10853235    -0.23200
C1634       C  0.97980646  0.18319426  0.09186194     0.11400
S1635       S  0.53221620  0.14714276  0.07527949    -0.06800
C1636       C  0.01216426  0.18312695  0.06050183    -0.10300
C1637       C  0.98742186  0.20130940  0.07288544    -0.26900
S1638       S  0.92697388  0.18056428  0.14928257    -0.04100
C1639       C  0.94227992  0.14186254  0.16104352    -0.17600
C1640       C  0.96634040  0.12351635  0.14817708    -0.15600
H1641       H  0.52205907  0.11485754  0.11939933     0.19800
H1642       H  0.94191262  0.21853995  0.10725732     0.15900
H1643       H  0.97610360  0.22663810  0.06837011     0.18400
H1644       H  0.97866288  0.09869507  0.15276916     0.11700
C1645       C  0.74954439  0.41009649  0.44383772     0.15600
C1646       C  0.74894039  0.39144889  0.42393166    -0.33400
C1647       C  0.71623495  0.38685646  0.41354384     0.20000
C1648       C  0.68543906  0.40064064  0.42236293     0.02200
C1649       C  0.68597763  0.41900002  0.44247330    -0.23200
C1650       C  0.71873872  0.42325476  0.45302911     0.11400
S1651       S  0.78665602  0.41825418  0.45887795    -0.06800
C1652       C  0.76058215  0.43955658  0.47795561    -0.10300
C1653       C  0.72487563  0.43993226  0.47277594    -0.26900
S1654       S  0.64884405  0.39392806  0.40634132    -0.04100
C1655       C  0.67529874  0.37171623  0.38782559    -0.17600
C1656       C  0.71052500  0.36991161  0.39394377    -0.15600
H1657       H  0.77298040  0.38103301  0.41680620     0.19800
H1658       H  0.66198636  0.42966967  0.44950633     0.15900
H1659       H  0.70458346  0.45174378  0.48293453     0.18400
H1660       H  0.73121078  0.35808852  0.38409146     0.11700
C1661       C  0.84781111  0.38106494  0.12114243     0.15600
C1662       C  0.82786469  0.38052900  0.10177986    -0.33400
C1663       C  0.82618264  0.41179397  0.08940114     0.20000
C1664       C  0.84320182  0.44249831  0.09609801     0.02200
C1665       C  0.86340217  0.44297437  0.11542891    -0.23200
C1666       C  0.86546966  0.41147142  0.12766965     0.11400
S1667       S  0.85187491  0.34618500  0.13881884    -0.06800
C1668       C  0.87808360  0.37258742  0.15511515    -0.10300
C1669       C  0.88324741  0.40664722  0.14707468    -0.26900
S1670       S  0.83735640  0.47777949  0.07881776    -0.04100
C1671       C  0.81233480  0.45052245  0.06234165    -0.17600
C1672       C  0.80857406  0.41621535  0.06994952    -0.15600
H1673       H  0.81413971  0.35678425  0.09661920     0.19800
H1674       H  0.87684613  0.46681436  0.12070622     0.15900
H1675       H  0.89788603  0.42724414  0.15546440     0.18400
H1676       H  0.79375260  0.39567343  0.06163741     0.11700
C1677       C  0.95343887  0.26850265  0.41078528     0.15600
C1678       C  0.95690080  0.24362604  0.42780349    -0.33400
C1679       C  0.97551800  0.25386659  0.44669414     0.20000
C1680       C  0.49111397  0.28827527  0.44998064     0.02200
C1681       C  0.48758988  0.31274784  0.43265074    -0.23200
C1682       C  0.96842134  0.30191449  0.41246006     0.11400
S1683       S  0.93067340  0.26149021  0.38697398    -0.06800
C1684       C  0.94161381  0.30392238  0.37892713    -0.10300
C1685       C  0.96202028  0.32230413  0.39409380    -0.26900
S1686       S  0.51451728  0.29526937  0.47369835    -0.04100
C1687       C  0.50348613  0.25291619  0.48186642    -0.17600
C1688       C  0.98172771  0.23334156  0.46493762    -0.15600
H1689       H  0.94534581  0.21747649  0.42644144     0.19800
H1690       H  0.50010282  0.33850706  0.43342955     0.15900
H1691       H  0.97097955  0.34934908  0.39202230     0.18400
H1692       H  0.97314887  0.20612099  0.46674022     0.11700
C1693       C  0.92329091  0.82303286  0.35967289     0.79900
N1694       N  0.93964623  0.85131483  0.35017084    -0.78400
C1695       C  0.92838446  0.86369240  0.33028570     0.82300
N1696       N  0.90060848  0.84800815  0.32008693    -0.78400
C1697       C  0.88435478  0.81978416  0.32943519     0.82400
N1698       N  0.89589955  0.80730599  0.34909235    -0.80100
C1699       C  0.88976544  0.85764109  0.17593369     0.79900
N1700       N  0.87085625  0.83261566  0.18687042    -0.78400
C1701       C  0.87558262  0.82768923  0.20878352     0.82300
N1702       N  0.89915740  0.84808625  0.21981895    -0.78400
C1703       C  0.91938844  0.87193765  0.20884404     0.82400
N1704       N  0.91418051  0.87715132  0.18697997    -0.80100
C1705       C  0.66468294  0.86444185  0.36547587     0.79900
N1706       N  0.68242767  0.83806960  0.35488107    -0.78400
C1707       C  0.67442846  0.82997474  0.33365182     0.82300
N1708       N  0.64926144  0.84878165  0.32295377    -0.78400
C1709       C  0.63046969  0.87398665  0.33360952     0.82400
N1710       N  0.63855907  0.88214976  0.35474887    -0.80100
C1711       C  0.92940533  0.62901606  0.18307127     0.79900
N1712       N  0.94524991  0.60097651  0.19307379    -0.78400
C1713       C  0.93315527  0.58880434  0.21269753     0.82300
N1714       N  0.90482484  0.60452778  0.22223409    -0.78400
C1715       C  0.88887719  0.63258225  0.21238217     0.82400
N1716       N  0.90128787  0.64485312  0.19284566    -0.80100
N1717       N  0.48221888  0.93533692  0.22979911    -0.06500
N1718       N  0.47357183  0.91197542  0.21453896    -0.58600
N1719       N  0.96073180  0.51681269  0.24546251    -0.06200
N1720       N  0.93829353  0.54302233  0.24205182    -0.60700
N1721       N  0.48449322  0.51348930  0.23025089    -0.05800
N1722       N  0.47918475  0.53914349  0.21584165    -0.58600
N1723       N  0.95854801  0.93335428  0.24455202    -0.05400
N1724       N  0.93338565  0.91005890  0.24066087    -0.61100
C1725       C  0.94263307  0.89571263  0.22117988     0.95700
C1726       C  0.95039339  0.55860330  0.22348416     0.95500
N1727       N  0.48404019  0.51323234  0.31343379    -0.06700
N1728       N  0.47647629  0.53689007  0.32875447    -0.59200
N1729       N  0.95894550  0.93333711  0.29657295    -0.04800
N1730       N  0.93518032  0.90853925  0.30050012    -0.60400
N1731       N  0.48427817  0.93421735  0.31316097    -0.06700
N1732       N  0.47862264  0.90849856  0.32750089    -0.59400
N1733       N  0.96004283  0.51646987  0.29729318    -0.04400
N1734       N  0.93578080  0.54071063  0.30115285    -0.60500
Mn1735     Mn  0.95870903  0.97405653  0.27024194     1.18400
C1736       C  0.94538792  0.55469643  0.32067214     0.97800
C1737       C  0.94658109  0.89316106  0.31933841     0.98400
N1738       N  0.56837650  0.50968399  0.22909784    -0.06700
N1739       N  0.57832414  0.53162775  0.21325428    -0.63000
N1740       N  0.58981583  0.93232642  0.24525844    -0.05500
N1741       N  0.61130953  0.90525646  0.24214083    -0.63700
N1742       N  0.56528115  0.93284270  0.22993475    -0.06200
N1743       N  0.56954965  0.90633360  0.21605761    -0.63300
N1744       N  0.59182824  0.50963015  0.24505473    -0.05100
N1745       N  0.61767549  0.53193208  0.24068224    -0.64000
Mn1746     Mn  0.52534003  0.97464686  0.22906419     1.10700
C1747       C  0.60886314  0.54562472  0.22093021     0.99000
C1748       C  0.59825500  0.88933544  0.22392517     0.99100
N1749       N  0.56797363  0.93452586  0.31315584    -0.06200
N1750       N  0.57716908  0.91213067  0.32889744    -0.61600
N1751       N  0.59132566  0.51144918  0.29695556    -0.05500
N1752       N  0.61396912  0.53768977  0.29985297    -0.58300
N1753       N  0.56712778  0.51197781  0.31248705    -0.06900
N1754       N  0.57280092  0.53832451  0.32627901    -0.61200
N1755       N  0.59114671  0.93368758  0.29705623    -0.05800
N1756       N  0.61604323  0.91027660  0.30122840    -0.58400
Mn1757     Mn  0.52583938  0.97477276  0.31358895     1.20200
Mn1758     Mn  0.59208922  0.97377334  0.27101363     1.10100
Cl1759     Cl  0.52555923  0.97467998  0.27132473    -0.86300
C1760       C  0.60686071  0.89685142  0.32097648     0.96000
C1761       C  0.60201948  0.55412747  0.31820227     0.95800
C1762       C  0.61803308  0.81867518  0.18357870     0.79900
N1763       N  0.60184702  0.84625086  0.19382768    -0.78400
C1764       C  0.61442716  0.85852672  0.21332835     0.82300
N1765       N  0.64290351  0.84287847  0.22269021    -0.78400
C1766       C  0.65883401  0.81505240  0.21271274     0.82400
N1767       N  0.64657018  0.80318052  0.19308940    -0.80100
C1768       C  0.88966369  0.59205438  0.36490816     0.79900
N1769       N  0.91546007  0.57329313  0.35451989    -0.78400
C1770       C  0.92251637  0.57917411  0.33288452     0.82300
N1771       N  0.90315197  0.60336918  0.32156303    -0.78400
C1772       C  0.87847299  0.62324025  0.33199650     0.82400
N1773       N  0.87147415  0.61715725  0.35355695    -0.80100
C1774       C  0.62189884  0.62639205  0.35740769     0.79900
N1775       N  0.64918602  0.64268590  0.34709475    -0.78400
C1776       C  0.66164664  0.63014593  0.32771422     0.82300
N1777       N  0.64645067  0.60126079  0.31838880    -0.78400
C1778       C  0.61881664  0.58501644  0.32843339     0.82400
N1779       N  0.60671664  0.59749068  0.34802879    -0.80100
C1780       C  0.66444437  0.58093266  0.17585341     0.79900
N1781       N  0.68202362  0.60733265  0.18650721    -0.78400
C1782       C  0.67559948  0.61396188  0.20811459     0.82300
N1783       N  0.65162228  0.59387688  0.21907917    -0.78400
C1784       C  0.63269708  0.56867217  0.20836858     0.82400
N1785       N  0.63961456  0.56177801  0.18685337    -0.80100
N1786       N  0.81400274  0.76635750  0.31153770    -0.06500
N1787       N  0.83925716  0.77252084  0.32594983    -0.58600
N1788       N  0.73277212  0.79011940  0.29638631    -0.06200
N1789       N  0.70999814  0.81546021  0.30094406    -0.60700
N1790       N  0.73375644  0.76667334  0.31240944    -0.05800
N1791       N  0.71216436  0.77613559  0.32848105    -0.58600
N1792       N  0.81381236  0.79084457  0.29610667    -0.05400
N1793       N  0.83915165  0.81421999  0.29968823    -0.61100
C1794       C  0.85476955  0.80231317  0.31832701     0.95700
C1795       C  0.69716706  0.80630639  0.32086491     0.95500
N1796       N  0.73181515  0.76390875  0.22909197    -0.06700
N1797       N  0.70566160  0.76907220  0.21511334    -0.59200
N1798       N  0.81273617  0.79041534  0.24420428    -0.04800
N1799       N  0.83672397  0.81496519  0.24039150    -0.60400
N1800       N  0.81244429  0.76681974  0.22828166    -0.06700
N1801       N  0.83591999  0.77530495  0.21306577    -0.59400
N1802       N  0.73168237  0.78845783  0.24448831    -0.04400
N1803       N  0.70529769  0.81070151  0.24135782    -0.60500
Mn1804     Mn  0.77273049  0.79083690  0.27021941     1.18400
C1805       C  0.68938542  0.79824781  0.22303727     0.97800
C1806       C  0.85114695  0.80507635  0.22106249     0.98400
N1807       N  0.73391602  0.68240037  0.31140840    -0.06700
N1808       N  0.70763544  0.67688189  0.32522349    -0.63000
N1809       N  0.81577897  0.65908410  0.29596100    -0.05500
N1810       N  0.84051834  0.63531181  0.29986401    -0.63700
N1811       N  0.81481429  0.68275311  0.31181029    -0.06200
N1812       N  0.83851661  0.67512030  0.32705689    -0.63300
N1813       N  0.73438338  0.65780462  0.29606465    -0.05100
N1814       N  0.70830615  0.63511406  0.29907313    -0.64000
Mn1815     Mn  0.77403696  0.72440990  0.31239881     1.10700
C1816       C  0.69190091  0.64741085  0.31726724     0.99000
C1817       C  0.85468078  0.64579265  0.31916655     0.99100
N1818       N  0.81514991  0.68297222  0.22868288    -0.06200
N1819       N  0.84123601  0.67796421  0.21462553    -0.61600
N1820       N  0.73471180  0.65590518  0.24432138    -0.05500
N1821       N  0.71239104  0.62989495  0.24024725    -0.58300
N1822       N  0.73443009  0.67923163  0.22821398    -0.06900
N1823       N  0.71232796  0.66897487  0.21256739    -0.61200
N1824       N  0.81584353  0.65875420  0.24426984    -0.05800
N1825       N  0.84249087  0.63679680  0.24119801    -0.58400
Mn1826     Mn  0.77334038  0.72330838  0.22787059     1.20200
Mn1827     Mn  0.77519566  0.65702655  0.27021372     1.10100
Cl1828     Cl  0.77367524  0.72393581  0.27014583    -0.86300
C1829       C  0.85807003  0.64914914  0.22270629     0.96000
C1830       C  0.69839018  0.63843338  0.22052230     0.95800
C1831       C  0.77851405  0.94977872  0.49996569     0.01900
C1832       C  0.80248304  0.97840051  0.49905774     0.01900
C1833       C  0.81675820  0.99197449  0.51864737    -0.18600
C1834       C  0.80755655  0.97743348  0.53910758     0.01900
C1835       C  0.78311771  0.94927203  0.54007654     0.01900
C1836       C  0.76911927  0.93546360  0.52049248    -0.18600
H1837       H  0.75038523  0.91378290  0.52125159     0.03900
H1838       H  0.84321384  0.50339105  0.51913323     0.03900
C1839       C  0.54927778  0.72275234  0.04064589     0.01900
C1840       C  0.52112239  0.69821627  0.04013157     0.01900
C1841       C  0.01465838  0.68311929  0.02018574    -0.18600
C1842       C  0.52122337  0.70035825  0.00003894     0.01900
C1843       C  0.54901145  0.72537481  0.00046098     0.01900
C1844       C  0.56311202  0.73588618  0.02081363    -0.18600
H1845       H  0.58401493  0.75548802  0.02125810     0.03900
H1846       H  0.99400130  0.66324691  0.01992159     0.03900
C1847       C  0.51858840  0.73701207  0.50179167     0.01900
C1848       C  0.53894240  0.70554817  0.50121535     0.01900
C1849       C  0.55145643  0.69065277  0.52093387    -0.18600
C1850       C  0.54406928  0.70640466  0.54135163     0.01900
C1851       C  0.52212367  0.73675105  0.54194266     0.01900
C1852       C  0.51054110  0.75226688  0.52219018    -0.18600
H1853       H  0.98553791  0.77426355  0.52240576     0.03900
H1854       H  0.56843850  0.66756139  0.52027235     0.03900
C1855       C  0.79174149  0.95614666  0.04102348     0.01900
C1856       C  0.76240643  0.97921921  0.04131546     0.01900
C1857       C  0.74768841  0.99047561  0.02133535    -0.18600
C1858       C  0.76205490  0.97964155  0.00117982     0.01900
C1859       C  0.79190745  0.95711529  0.00080729     0.01900
C1860       C  0.80628561  0.94548674  0.02082173    -0.18600
H1861       H  0.82906882  0.92810951  0.02070334     0.03900
H1862       H  0.73079742  0.51309377  0.02000123     0.03900
C1863       C  0.87898919  0.87204914  0.85805603     0.79900
N1864       N  0.86254353  0.84501979  0.84741937    -0.78400
C1865       C  0.87558251  0.83211881  0.82825165     0.82300
N1866       N  0.90512916  0.84666806  0.81946006    -0.78400
C1867       C  0.92169329  0.87397869  0.82969680     0.82400
N1868       N  0.90871711  0.88654343  0.84913585    -0.80100
C1869       C  0.92413306  0.60679468  0.86391307     0.79900
N1870       N  0.94296515  0.58174132  0.85290204    -0.78400
C1871       C  0.93566271  0.57440284  0.83151544     0.82300
N1872       N  0.91017661  0.59304656  0.82092534    -0.78400
C1873       C  0.89034391  0.61718909  0.83193411     0.82400
N1874       N  0.89752402  0.62417500  0.85340623    -0.80100
C1875       C  0.69554354  0.55828917  0.85411874     0.79900
N1876       N  0.71023902  0.58664611  0.84393950    -0.78400
C1877       C  0.69679747  0.59897012  0.82476363     0.82300
N1878       N  0.66864902  0.58258989  0.81553691    -0.78400
C1879       C  0.65395383  0.55390627  0.82546072     0.82400
N1880       N  0.66718739  0.54195419  0.84489726    -0.80100
C1881       C  0.64518897  0.82600691  0.86492574     0.79900
N1882       N  0.67114488  0.80856099  0.85389166    -0.78400
C1883       C  0.67643094  0.81480330  0.83211807     0.82300
N1884       N  0.65556682  0.83829888  0.82138315    -0.78400
C1885       C  0.63076206  0.85701239  0.83243043     0.82400
N1886       N  0.62513345  0.85039858  0.85411813    -0.80100
C1887       C  0.65050800  0.60147593  0.67311389     0.79900
N1888       N  0.67469964  0.62131627  0.68420192    -0.78400
C1889       C  0.68071517  0.61556945  0.70594801     0.82300
N1890       N  0.66152921  0.59069243  0.71678229    -0.78400
C1891       C  0.63815894  0.56989815  0.70582973     0.82400
N1892       N  0.63255288  0.57548075  0.68397719    -0.80100
C1893       C  0.88380898  0.56761593  0.68079023     0.79900
N1894       N  0.86707023  0.59447754  0.69134818    -0.78400
C1895       C  0.87865091  0.60584951  0.71125237     0.82300
N1896       N  0.90689214  0.58998426  0.72080031    -0.78400
C1897       C  0.92345875  0.56275200  0.71053068     0.82400
N1898       N  0.91200641  0.55172615  0.69047342    -0.80100
N1899       N  0.82679386  0.75814777  0.72812072    -0.06500
N1900       N  0.83549799  0.78155516  0.71286203    -0.58600
N1901       N  0.84997761  0.67717838  0.74400381    -0.06200
N1902       N  0.87274631  0.65120706  0.74076651    -0.60700
N1903       N  0.82583411  0.67723808  0.72841305    -0.05800
N1904       N  0.83173753  0.65150051  0.71422419    -0.58600
N1905       N  0.84996737  0.75862223  0.74422305    -0.05400
N1906       N  0.87444867  0.78267930  0.74052166    -0.61100
C1907       C  0.86497641  0.79690084  0.72104181     0.95700
C1908       C  0.86094433  0.63546750  0.72218554     0.95500
N1909       N  0.82723139  0.67792294  0.81176787    -0.06700
N1910       N  0.83649224  0.65519871  0.82736141    -0.59200
N1911       N  0.84884348  0.75940956  0.79583966    -0.04800
N1912       N  0.87100911  0.78589745  0.79911879    -0.60400
N1913       N  0.82421595  0.75921977  0.81111044    -0.06700
N1914       N  0.82916234  0.78548370  0.82512927    -0.59400
N1915       N  0.85060345  0.67769425  0.79579790    -0.04400
N1916       N  0.87573035  0.65446047  0.79988708    -0.60500
Mn1917     Mn  0.85070292  0.71818768  0.76996441     1.18400
C1918       C  0.86652348  0.64040213  0.81947379     0.97800
C1919       C  0.85836960  0.80193574  0.81738568     0.98400
N1920       N  0.74200508  0.67776248  0.72673606    -0.06700
N1921       N  0.73328832  0.65522600  0.71095490    -0.63000
N1922       N  0.71880274  0.75851526  0.74324690    -0.05500
N1923       N  0.69627980  0.78469317  0.74001879    -0.63700
N1924       N  0.74336481  0.75882506  0.72793330    -0.06200
N1925       N  0.73802807  0.78505557  0.71392679    -0.63300
N1926       N  0.71840208  0.67688646  0.74258012    -0.05100
N1927       N  0.69365195  0.65335545  0.73818975    -0.64000
Mn1928     Mn  0.78455754  0.71797241  0.72714728     1.10700
C1929       C  0.70332479  0.63986719  0.71854132     0.99000
C1930       C  0.70864119  0.80095704  0.72171955     0.99100
N1931       N  0.74042703  0.75611773  0.81125972    -0.06200
N1932       N  0.73057904  0.77792898  0.82713173    -0.61600
N1933       N  0.71962868  0.67500043  0.79435098    -0.05500
N1934       N  0.69875120  0.64723266  0.79675720    -0.58300
N1935       N  0.74386311  0.67538595  0.80988841    -0.06900
N1936       N  0.73996874  0.64806900  0.82318266    -0.61200
N1937       N  0.71718579  0.75649230  0.79517792    -0.05800
N1938       N  0.69154371  0.77901232  0.79953769    -0.58400
Mn1939     Mn  0.78387044  0.71723054  0.81168250     1.20200
Mn1940     Mn  0.71756848  0.71675423  0.76886020     1.10100
Cl1941     Cl  0.78413724  0.71755280  0.76941509    -0.86300
C1942       C  0.70034719  0.79234503  0.81937900     0.96000
C1943       C  0.71187551  0.63077158  0.81476812     0.95800
C1944       C  0.91594101  0.83720748  0.67576910     0.74300
N1945       N  0.93614630  0.86083870  0.68698894    -0.78400
C1946       C  0.93263825  0.86420956  0.70911916     0.82300
N1947       N  0.90909911  0.84367080  0.72004645    -0.78400
C1948       C  0.88775559  0.82119242  0.70886284     0.82400
N1949       N  0.89163064  0.81753195  0.68679926    -0.80100
C1950       C  0.68628706  0.87164406  0.68165997     0.79900
N1951       N  0.70278430  0.84372281  0.69143249    -0.78400
C1952       C  0.69126276  0.83121514  0.71116634     0.82300
N1953       N  0.66300649  0.84642466  0.72105189    -0.78400
C1954       C  0.64644791  0.87428635  0.71151234     0.82400
N1955       N  0.65821005  0.88694913  0.69186777    -0.80100
N1956       N  0.99553151  0.92424777  0.81262874    -0.06500
N1957       N  0.96971609  0.91923830  0.82692380    -0.58600
N1958       N  0.57151616  0.89772505  0.79600046    -0.06200
N1959       N  0.59373714  0.87177200  0.80031718    -0.60700
N1960       N  0.57141340  0.92107371  0.81204625    -0.05800
N1961       N  0.59318903  0.91102380  0.82788476    -0.58600
N1962       N  0.99502083  0.89961517  0.79727392    -0.05400
N1963       N  0.96860309  0.87744242  0.80082479    -0.61100
C1964       C  0.95308134  0.89001098  0.81934183     0.95700
C1965       C  0.60717467  0.88048746  0.82012939     0.95500
N1966       N  0.57313807  0.92428159  0.72855814    -0.06700
N1967       N  0.59927118  0.91952214  0.71456124    -0.59200
N1968       N  0.99620420  0.89914894  0.74500364    -0.04800
N1969       N  0.97173044  0.87516900  0.74096717    -0.60400
N1970       N  0.99715697  0.92287075  0.72914330    -0.06700
N1971       N  0.97371791  0.91515989  0.71378497    -0.59400
N1972       N  0.57320652  0.89957237  0.74387582    -0.04400
N1973       N  0.59974599  0.87743865  0.74057028    -0.60500
Mn1974     Mn  0.53175576  0.89864546  0.76990421     1.18400
C1975       C  0.61567626  0.89032786  0.72224253     0.97800
C1976       C  0.95780267  0.88564942  0.72156863     0.98400
N1977       N  0.57949338  0.50382639  0.81007017    -0.06700
N1978       N  0.60627041  0.50834146  0.82371065    -0.63000
N1979       N  0.99550185  0.53385286  0.79527128    -0.05500
N1980       N  0.97290514  0.55962390  0.79936378    -0.63700
N1981       N  0.99525026  0.51039554  0.81129835    -0.06200
N1982       N  0.97284892  0.52016883  0.82684813    -0.63300
N1983       N  0.57982552  0.52832259  0.79459821    -0.05100
N1984       N  0.60688654  0.54981932  0.79731226    -0.64000
Mn1985     Mn  0.53306492  0.96516092  0.81213000     1.10700
C1986       C  0.62308920  0.53705990  0.81545826     0.99000
C1987       C  0.95879289  0.55064306  0.81898455     0.99100
N1988       N  0.99385939  0.50870314  0.72776595    -0.06200
N1989       N  0.96846062  0.51512415  0.71346519    -0.61600
N1990       N  0.57840246  0.53051634  0.74282970    -0.05500
N1991       N  0.60162906  0.55555882  0.73837594    -0.58300
N1992       N  0.57733909  0.50709639  0.72683444    -0.06900
N1993       N  0.59937895  0.51633647  0.71088888    -0.61200
N1994       N  0.99440244  0.53309912  0.74322795    -0.05800
N1995       N  0.96914248  0.55659327  0.73980871    -0.58400
Mn1996     Mn  0.53314124  0.96583205  0.72759413     1.20200
Mn1997     Mn  0.53847536  0.53159211  0.76913158     1.10100
Cl1998     Cl  0.53312286  0.96549557  0.76985563    -0.86300
C1999       C  0.95326790  0.54497975  0.72121077     0.96000
C2000       C  0.61473486  0.54635058  0.71853821     0.95800
C2001       C  0.71357974  0.00319866  0.94798152     0.15600
C2002       C  0.69120641  0.00404493  0.92962604    -0.33400
C2003       C  0.70952979  0.52342606  0.90975988     0.20000
C2004       C  0.74318143  0.53765835  0.90812303     0.02200
C2005       C  0.76687692  0.53572631  0.92573855    -0.23200
C2006       C  0.75510642  0.51948053  0.94510871     0.11400
S2007       S  0.70542390  0.98024395  0.97166480    -0.06800
C2008       C  0.74640874  0.99330652  0.98074289    -0.10300
C2009       C  0.77428266  0.51483323  0.96392619    -0.26900
S2010       S  0.75185747  0.55782324  0.88363698    -0.04100
C2011       C  0.70982711  0.54662955  0.87537972    -0.17600
C2012       C  0.69034463  0.52813423  0.89087702    -0.15600
H2013       H  0.66616059  0.99023945  0.92968610     0.19800
H2014       H  0.79322593  0.54664154  0.92446104     0.15900
H2015       H  0.80147265  0.52298837  0.96599469     0.18400
H2016       H  0.66326959  0.51965211  0.88871256     0.11700
C2017       C  0.82722885  0.89854772  0.91004932     0.15600
C2018       C  0.80146228  0.90334253  0.92633100    -0.33400
C2019       C  0.81136071  0.92092029  0.94567451     0.20000
C2020       C  0.84551094  0.93308917  0.94877544     0.02200
C2021       C  0.87128868  0.92861191  0.93233718    -0.23200
C2022       C  0.86129724  0.91116020  0.91285271     0.11400
S2023       S  0.82040056  0.87699443  0.88578351    -0.06800
C2024       C  0.86378900  0.88528640  0.87895238    -0.10300
C2025       C  0.88241143  0.90390997  0.89492112    -0.26900
S2026       S  0.85218542  0.95306945  0.97371750    -0.04100
C2027       C  0.80838584  0.94539383  0.97983901    -0.17600
C2028       C  0.78997229  0.92795038  0.96336556    -0.15600
H2029       H  0.77483649  0.89359666  0.92405751     0.19800
H2030       H  0.89795900  0.93817774  0.93466970     0.15900
H2031       H  0.90999970  0.91108918  0.89367894     0.18400
H2032       H  0.76238466  0.92067319  0.96434188     0.11700
C2033       C  0.59594883  0.68357628  0.59429370     0.15600
C2034       C  0.61656356  0.68415623  0.61346959    -0.33400
C2035       C  0.62290009  0.65182079  0.62422277     0.20000
C2036       C  0.60921064  0.62025418  0.61631505     0.02200
C2037       C  0.58925536  0.61956742  0.59681425    -0.23200
C2038       C  0.58294268  0.65195499  0.58601885     0.11400
S2039       S  0.58429599  0.72013855  0.57935567    -0.06800
C2040       C  0.56180012  0.69265951  0.56152085    -0.10300
C2041       C  0.56364777  0.65695292  0.56707268    -0.26900
S2042       S  0.61697646  0.58450671  0.63304331    -0.04100
C2043       C  0.63918998  0.61234172  0.65078724    -0.17600
C2044       C  0.64064470  0.64733763  0.64372160    -0.15600
H2045       H  0.62664300  0.70886203  0.61997842     0.19800
H2046       H  0.57843690  0.59498353  0.59060464     0.15900
H2047       H  0.55127132  0.63584197  0.55781994     0.18400
H2048       H  0.65214151  0.66884829  0.65307259     0.11700
C2049       C  0.96262791  0.75824146  0.59480297     0.15600
C2050       C  0.94098545  0.75818408  0.61344980    -0.33400
C2051       C  0.93760816  0.78996533  0.62513587     0.20000
C2052       C  0.95498115  0.82054263  0.61859066     0.02200
C2053       C  0.97586476  0.82087357  0.59952708    -0.23200
C2054       C  0.97931263  0.78898811  0.58783976     0.11400
S2055       S  0.97111468  0.72194208  0.57901224    -0.06800
C2056       C  0.50648602  0.74925847  0.56275409    -0.10300
C2057       C  0.50631094  0.78440271  0.56941170    -0.26900
S2058       S  0.95074466  0.85512177  0.63653491    -0.04100
C2059       C  0.92521693  0.82805073  0.65295248    -0.17600
C2060       C  0.91990569  0.79433022  0.64455610    -0.15600
H2061       H  0.92805294  0.73415966  0.61893906     0.19800
H2062       H  0.49325721  0.84459085  0.59482488     0.15900
H2063       H  0.51943543  0.80580030  0.56080060     0.18400
H2064       H  0.90609802  0.77322643  0.65304351     0.11700
C2065       C  0.62989615  0.78629397  0.92248092     0.15600
C2066       C  0.63193744  0.76763935  0.94245861    -0.33400
C2067       C  0.60050367  0.76246665  0.95430686     0.20000
C2068       C  0.56852898  0.77532463  0.94658561     0.02200
C2069       C  0.56663633  0.79461411  0.92691241    -0.23200
C2070       C  0.59799460  0.79980347  0.91510658     0.11400
S2071       S  0.66430121  0.79294214  0.90471312    -0.06800
C2072       C  0.63545611  0.81464322  0.88736057    -0.10300
C2073       C  0.60111549  0.81650013  0.89516337    -0.26900
S2074       S  0.53312095  0.76487445  0.96266535    -0.04100
C2075       C  0.56156484  0.74290873  0.98008744    -0.17600
C2076       C  0.59673171  0.74421982  0.97375337    -0.15600
H2077       H  0.65676986  0.75694966  0.94825874     0.19800
H2078       H  0.54165662  0.80455337  0.92084122     0.15900
H2079       H  0.57917363  0.82788939  0.88619001     0.18400
H2080       H  0.61820116  0.73192394  0.98269942     0.11700
C2081       C  0.00637178  0.65139475  0.94512815     0.15600
C2082       C  0.00649961  0.63217736  0.92538834    -0.33400
C2083       C  0.97491660  0.63056320  0.91335421     0.20000
C2084       C  0.94467051  0.64773091  0.92047089     0.02200
C2085       C  0.94441318  0.66655609  0.94036265    -0.23200
C2086       C  0.97585954  0.66778600  0.95254792     0.11400
S2087       S  0.04207679  0.65692967  0.96195609    -0.06800
C2088       C  0.01546512  0.68110128  0.97932829    -0.10300
C2089       C  0.98084157  0.68457411  0.97232333    -0.26900
S2090       S  0.90967146  0.64426454  0.90284242    -0.04100
C2091       C  0.93579063  0.61873939  0.88588581    -0.17600
C2092       C  0.96987821  0.61357799  0.89365836    -0.15600
H2093       H  0.03022392  0.61918912  0.91960785     0.19800
H2094       H  0.92079027  0.67985134  0.94602847     0.15900
H2095       H  0.45431103  0.70349320  0.97935123     0.18400
H2096       H  0.99030601  0.59921210  0.88497164     0.11700
C2097       C  0.85784635  0.50172493  0.59096885     0.15600
C2098       C  0.88238699  0.50791524  0.60784490    -0.33400
C2099       C  0.87093623  0.52728753  0.62624016     0.20000
C2100       C  0.83678061  0.54030379  0.62758564     0.02200
C2101       C  0.81220809  0.53371673  0.61090934    -0.23200
C2102       C  0.82347934  0.51403315  0.59271770     0.11400
S2103       S  0.85940487  0.96869952  0.57152412    -0.06800
C2104       C  0.82477419  0.99070271  0.55924268    -0.10300
C2105       C  0.80330120  0.50491324  0.57496221    -0.26900
S2106       S  0.82806840  0.56384955  0.65086858    -0.04100
C2107       C  0.87059730  0.55533413  0.65931901    -0.17600
C2108       C  0.89047236  0.53563634  0.64454291    -0.15600
H2109       H  0.89790193  0.97736717  0.61400301     0.19800
H2110       H  0.78541517  0.54351343  0.61206808     0.15900
H2111       H  0.77572268  0.51174450  0.57299865     0.18400
H2112       H  0.91769399  0.52790160  0.64705086     0.11700
C2113       C  0.71199752  0.91890193  0.62769022     0.15600
C2114       C  0.71655325  0.94280113  0.61021971    -0.33400
C2115       C  0.73990591  0.93324366  0.59331995     0.20000
C2116       C  0.75773298  0.90114863  0.59364551     0.02200
C2117       C  0.75345299  0.87740092  0.61125151    -0.23200
C2118       C  0.73031710  0.88711843  0.62827727     0.11400
S2119       S  0.68479506  0.92556630  0.64972815    -0.06800
C2120       C  0.69877068  0.88544732  0.66020822    -0.10300
C2121       C  0.72294334  0.86786785  0.64693160    -0.26900
S2122       S  0.78391628  0.89401984  0.57113339    -0.04100
C2123       C  0.77093315  0.93482929  0.56137465    -0.17600
C2124       C  0.74764791  0.95282787  0.57491578    -0.15600
H2125       H  0.70246026  0.96775200  0.60980118     0.19800
H2126       H  0.76749899  0.85242514  0.61164845     0.15900
H2127       H  0.73456490  0.84237424  0.65073740     0.18400
H2128       H  0.73663555  0.97865958  0.57128442     0.11700
C2129       C  0.70503901  0.56396167  0.11887150     0.15600
C2130       C  0.72457237  0.56584801  0.09932587    -0.33400
C2131       C  0.72941656  0.53448979  0.08734735     0.20000
C2132       C  0.71541365  0.50252164  0.09447005     0.02200
C2133       C  0.69521263  0.50074302  0.11384734    -0.23200
C2134       C  0.69037019  0.53222914  0.12585617     0.11400
S2135       S  0.69876939  0.59857470  0.13652221    -0.06800
C2136       C  0.67579101  0.57028280  0.15354488    -0.10300
C2137       C  0.67307785  0.53580644  0.14563049    -0.26900
S2138       S  0.72571535  0.46726733  0.07794956    -0.04100
C2139       C  0.74667053  0.99194491  0.06213682    -0.17600
C2140       C  0.74606157  0.02743559  0.06797288    -0.15600
H2141       H  0.73472530  0.08896976  0.09224384     0.19800
H2142       H  0.68433185  0.47582851  0.11952583     0.15900
H2143       H  0.66073592  0.51412086  0.15441717     0.18400
H2144       H  0.75738782  0.04862034  0.05823659     0.11700
C2145       C  0.56150730  0.65435282  0.44840478     0.15600
C2146       C  0.56534460  0.62968178  0.43128487    -0.33400
C2147       C  0.58324666  0.64080098  0.41223565     0.20000
C2148       C  0.59686229  0.67480736  0.41046128     0.02200
C2149       C  0.59272006  0.69943697  0.42740329    -0.23200
C2150       C  0.57476821  0.68844114  0.44629640     0.11400
S2151       S  0.54106295  0.64641192  0.47302354    -0.06800
C2152       C  0.55008317  0.68966914  0.48016276    -0.10300
C2153       C  0.56832509  0.70874721  0.46441931    -0.26900
S2154       S  0.61877272  0.68309710  0.38657588    -0.04100
C2155       C  0.60924747  0.64043173  0.37856032    -0.17600
C2156       C  0.59002957  0.62092364  0.39379566    -0.15600
H2157       H  0.55498108  0.60304896  0.43276986     0.19800
H2158       H  0.60322567  0.72602849  0.42596581     0.15900
H2159       H  0.57637865  0.73613496  0.46617933     0.18400
H2160       H  0.58209455  0.59357540  0.39167283     0.11700
C2161       C  0.85654096  0.51224187  0.44916086     0.15600
C2162       C  0.88201087  0.52040461  0.43320951    -0.33400
C2163       C  0.87327631  0.54568985  0.41718413     0.20000
C2164       C  0.84075266  0.56250617  0.41719582     0.02200
C2165       C  0.81508307  0.55410211  0.43304230    -0.23200
C2166       C  0.82365713  0.52837914  0.44890005     0.11400
S2167       S  0.86252016  0.48290635  0.47024395    -0.06800
C2168       C  0.81578685  0.99216284  0.47791767    -0.10300
C2169       C  0.80691133  0.02517700  0.46958058    -0.26900
S2170       S  0.83514050  0.59186345  0.39606494    -0.04100
C2171       C  0.87670459  0.58064440  0.38672853    -0.17600
C2172       C  0.89397790  0.55593330  0.39976438    -0.15600
H2173       H  0.90749991  0.50743614  0.43321925     0.19800
H2174       H  0.78947117  0.56682330  0.43290085     0.15900
H2175       H  0.78814901  0.04312173  0.47707293     0.18400
H2176       H  0.91977831  0.54500338  0.39622469     0.11700
C2177       C  0.57217005  0.78923287  0.13036715     0.15600
C2178       C  0.54829438  0.78167963  0.11342339    -0.33400
C2179       C  0.56109168  0.76335575  0.09503473     0.20000
C2180       C  0.59617407  0.75322363  0.09342188     0.02200
C2181       C  0.61995864  0.76031594  0.11053025    -0.23200
C2182       C  0.60705656  0.77835194  0.12903855     0.11400
S2183       S  0.56195546  0.81178088  0.15386056    -0.06800
C2184       C  0.60493612  0.80575623  0.16225384    -0.10300
C2185       C  0.62592588  0.78748550  0.14740425    -0.26900
S2186       S  0.60661191  0.73220062  0.06938308    -0.04100
C2187       C  0.56309717  0.73654062  0.06169334    -0.17600
C2188       C  0.54194956  0.75365917  0.07693087    -0.15600
H2189       H  0.52095189  0.78982842  0.11449080     0.19800
H2190       H  0.64731028  0.75220751  0.10944922     0.15900
H2191       H  0.65359668  0.78148274  0.14984455     0.18400
H2192       H  0.51406193  0.75886357  0.07476923     0.11700
C2193       C  0.99887924  0.65100270  0.09417288     0.15600
C2194       C  0.99485700  0.62886936  0.11251176    -0.33400
C2195       C  0.97295326  0.64067687  0.12957820     0.20000
C2196       C  0.95572717  0.67304958  0.12847149     0.02200
C2197       C  0.96000907  0.69536447  0.11021849    -0.23200
C2198       C  0.98189619  0.68352942  0.09313690     0.11400
S2199       S  0.53376758  0.65547336  0.07693666    -0.06800
C2200       C  0.01211340  0.68179277  0.06101150    -0.10300
C2201       C  0.98943093  0.70136008  0.07408140    -0.26900
S2202       S  0.92967811  0.68208926  0.15069177    -0.04100
C2203       C  0.94240715  0.64194203  0.16168372    -0.17600
C2204       C  0.96558461  0.62281308  0.14864779    -0.15600
H2205       H  0.52415878  0.62119110  0.12044504     0.19800
H2206       H  0.94675501  0.72074509  0.10932418     0.15900
H2207       H  0.97948277  0.72743435  0.06996468     0.18400
H2208       H  0.97617853  0.59699708  0.15278338     0.11700
C2209       C  0.74507755  0.89841812  0.44949093     0.15600
C2210       C  0.73846793  0.87344399  0.43290823    -0.33400
C2211       C  0.71290499  0.88182025  0.41702179     0.20000
C2212       C  0.69454155  0.91357237  0.41770707     0.02200
C2213       C  0.70151563  0.93880691  0.43409654    -0.23200
C2214       C  0.72729569  0.93054065  0.44988401     0.11400
S2215       S  0.77436007  0.89277331  0.47059439    -0.06800
C2216       C  0.76304581  0.93434891  0.47980546    -0.10300
C2217       C  0.73778906  0.95147829  0.46716518    -0.26900
S2218       S  0.66457862  0.91867347  0.39695682    -0.04100
C2219       C  0.67735688  0.87786498  0.38691806    -0.17600
C2220       C  0.70329302  0.86129369  0.39935231    -0.15600
H2221       H  0.75261717  0.84853048  0.43242832     0.19800
H2222       H  0.68748345  0.96379198  0.43451121     0.15900
H2223       H  0.72734940  0.97757996  0.47066517     0.18400
H2224       H  0.71508003  0.83594827  0.39540427     0.11700
C2225       C  0.84969445  0.87451338  0.11902104     0.15600
C2226       C  0.83009280  0.87316891  0.09948865    -0.33400
C2227       C  0.82597431  0.90477878  0.08760643     0.20000
C2228       C  0.84045810  0.93641317  0.09491509     0.02200
C2229       C  0.86049232  0.93763498  0.11426675    -0.23200
C2230       C  0.86488785  0.90595724  0.12603808     0.11400
S2231       S  0.85562471  0.83969833  0.13661143    -0.06800
C2232       C  0.87923034  0.86769024  0.15347492    -0.10300
C2233       C  0.88232997  0.90207595  0.14562648    -0.26900
S2234       S  0.83152503  0.97207981  0.07852240    -0.04100
C2235       C  0.80853731  0.94392080  0.06151401    -0.17600
C2236       C  0.80782254  0.90889875  0.06828610    -0.15600
H2237       H  0.81816544  0.84867604  0.09395629     0.19800
H2238       H  0.87182229  0.96227571  0.12003102     0.15900
H2239       H  0.89488268  0.92360811  0.15441562     0.18400
H2240       H  0.79452958  0.88773496  0.05958206     0.11700
C2241       C  0.94674156  0.77250199  0.41269569     0.15600
C2242       C  0.95051612  0.74710886  0.42936836    -0.33400
C2243       C  0.97016461  0.75643989  0.44800929     0.20000
C2244       C  0.48979291  0.79038131  0.45054800     0.02200
C2245       C  0.48522095  0.81562746  0.43374323    -0.23200
C2246       C  0.96217431  0.80569129  0.41448954     0.11400
S2247       S  0.92370680  0.76602496  0.38895941    -0.06800
C2248       C  0.93530580  0.80828049  0.38095111    -0.10300
C2249       C  0.95594025  0.82634652  0.39617419    -0.26900
S2250       S  0.51294559  0.79704081  0.47437321    -0.04100
C2251       C  0.50431620  0.75362231  0.48146218    -0.17600
C2252       C  0.97726163  0.73500249  0.46570642    -0.15600
H2253       H  0.93874533  0.72108232  0.42782523     0.19800
H2254       H  0.49655686  0.84186913  0.43509289     0.15900
H2255       H  0.96548494  0.85318075  0.39407240     0.18400
H2256       H  0.96829620  0.70787463  0.46727812     0.11700
loop_ 
_geom_bond_atom_site_label_1 
_geom_bond_atom_site_label_2 
_geom_bond_distance 
_geom_bond_site_symmetry_2 
_ccdc_geom_bond_type 
C1            N2   1.362       .  A
C1            N6   1.360       .  A
C1          C556   1.483       .  S
N2            C3   1.363       .  A
C3            N4   1.358       .  A
C3           C45   1.470       .  S
N4            C5   1.356       .  A
C5            N6   1.359       .  A
C5          C102   1.469       .  S
C7            N8   1.359       .  A
C7           N12   1.363       .  A
C7          C540   1.477       .  S
N8            C9   1.355       .  A
C9           N10   1.355       .  A
C9          C114   1.461       .  S
N10          C11   1.356       .  A
C11          N12   1.362       .  A
C11          C33   1.466       .  S
C13          N14   1.362       .  A
C13          N18   1.363       .  A
C13         C527   1.480       .  S
N14          C15   1.358       .  A
C15          N16   1.357       .  A
C15         C103   1.466       .  S
N16          C17   1.357       .  A
C17          N18   1.360       .  A
C17          C68   1.469       .  S
C19          N20   1.359       .  A
C19          N24   1.360       .  A
C19         C511   1.475       .  S
N20          C21   1.357       .  A
C21          N22   1.355       .  A
C21          C34   1.463       .  S
N22          C23   1.356       .  A
C23          N24   1.360       .  A
C23         C137   1.464       .  S
N25          N26   1.321       .  A
N25        N1159   1.315       .  A
N25         Mn54   2.202   1_655  S
N26        C1161   1.352       .  A
N27          N28   1.320       .  A
N27        N1157   1.317       .  A
N27        Mn607   2.215   1_545  S
N28          C34   1.353       .  A
N29          N30   1.322       .  A
N29        N1155   1.318       .  A
N29        Mn618   2.206   1_645  S
N30        C1162   1.353       .  A
N31          N32   1.319       .  A
N31        N1153   1.317       .  A
N31         Mn43   2.202       .  S
N32          C33   1.351       .  A
C33        N1154   1.353       .  A
C34        N1158   1.351       .  A
N35          N36   1.323       .  A
N35        N1169   1.316       .  A
N35        Mn629   2.213   1_645  S
N36        C1172   1.354       .  A
N37          N38   1.321       .  A
N37        N1167   1.317       .  A
N37         Mn43   2.222       .  S
N38          C45   1.355       .  A
N39          N40   1.320       .  A
N39        N1165   1.316       .  A
N39         Mn65   2.192   1_655  S
N40        C1173   1.351       .  A
N41          N42   1.319       .  A
N41        N1163   1.315       .  A
N41        Mn607   2.193   1_545  S
N42          C44   1.350       .  A
Mn43        N591   2.213       .  S
Mn43        N605   2.196       .  S
Mn43      Cl1195   2.524       .  S
C44        N1164   1.354       .  A
C44          C78   1.464       .  S
C45        N1168   1.352       .  A
N46          N47   1.325       .  A
N46          N52   1.317       .  A
N46        Mn618   2.215   1_545  S
N47          C55   1.355       .  A
N48          N50   1.317       .  A
N48          N49   1.321       .  A
N48         Mn66   2.220       .  S
N49          C56   1.354       .  A
N50          N51   1.321       .  A
N50         Mn54   2.198       .  S
N51          C56   1.352       .  A
N52          N53   1.318       .  A
N52        Mn630   2.196   1_545  S
N53          C55   1.349       .  A
Mn54        N593   2.205   1_455  S
Mn54        N610   2.213       .  S
Mn54        Cl67   2.575       .  S
C55          C92   1.468       .  S
C56          C72   1.470       .  S
N57          N58   1.325       .  A
N57          N63   1.316       .  A
N57         Mn65   2.213       .  S
N58          C68   1.355       .  A
N59          N60   1.321       .  A
N59          N61   1.317       .  A
N59        Mn630   2.215   1_545  S
N60          C69   1.354       .  A
N61          N62   1.318       .  A
N61        Mn629   2.184   1_545  S
N62          C69   1.349       .  A
N63          N64   1.319       .  A
N63         Mn66   2.200       .  S
N64          C68   1.350       .  A
Mn65        N599   2.219   1_455  S
Mn65        N625   2.188       .  S
Mn65        Cl67   2.575       .  S
Mn66        N616   2.205       .  S
Mn66        N623   2.223       .  S
Mn66        Cl67   2.524       .  S
Cl67      Mn1171   2.526   1_455  S
C69          C86   1.460       .  S
C70          N71   1.362       .  A
C70          N75   1.360       .  A
C70         C492   1.478       .  S
N71          C72   1.361       .  A
C72          N73   1.357       .  A
N73          C74   1.356       .  A
C74          N75   1.358       .  A
C74         C113   1.467       .  S
C76          N77   1.360       .  A
C76          N81   1.364       .  A
C76         C479   1.480       .  S
N77          C78   1.356       .  A
C78          N79   1.355       .  A
N79          C80   1.357       .  A
C80          N81   1.363       .  A
C80         C125   1.470       .  S
C82          N83   1.357       .  A
C82          N87   1.358       .  A
C82         C463   1.469       .  S
N83          C84   1.356       .  A
C84          N85   1.354       .  A
C84         C124   1.459       .  S
N85          C86   1.355       .  A
C86          N87   1.360       .  A
C88          N89   1.364       .  A
C88          N93   1.365       .  A
C88         C444   1.485       .  S
N89          C90   1.360       .  A
C90          N91   1.354       .  A
C90         C138   1.470       .  S
N91          C92   1.356       .  A
C92          N93   1.362       .  A
N94          N95   1.319       .  A
N94         N100   1.316       .  A
N94        Mn123   2.189       .  S
N95         C102   1.350       .  A
N96          N98   1.315       .  A
N96          N97   1.318       .  A
N96        Mn112   2.190       .  S
N97         C103   1.349       .  A
N98          N99   1.324       .  A
N98        Mn123   2.213       .  S
N99         C103   1.355       .  A
N100        N101   1.323       .  A
N100       Mn112   2.224       .  S
N101        C102   1.356       .  A
N104        N110   1.317       .  A
N104        N105   1.321       .  A
N104       Mn134   2.198       .  S
N105        C113   1.352       .  A
N106        N107   1.318       .  A
N106        N108   1.315       .  A
N106       Mn112   2.189       .  S
N107        C114   1.349       .  A
N108        N109   1.322       .  A
N108       Mn134   2.204       .  S
N109        C114   1.353       .  A
N110        N111   1.321       .  A
N110       Mn112   2.216       .  S
N111        C113   1.353       .  A
Mn112      Cl136   2.528       .  S
N115        N116   1.318       .  A
N115        N121   1.317       .  A
N115       Mn123   2.187       .  S
N116        C124   1.349       .  A
N117        N119   1.316       .  A
N117        N118   1.320       .  A
N117       Mn135   2.208       .  S
N118        C125   1.352       .  A
N119        N120   1.324       .  A
N119       Mn123   2.208       .  S
N120        C125   1.353       .  A
N121        N122   1.320       .  A
N121       Mn135   2.210       .  S
N122        C124   1.353       .  A
Mn123      Cl136   2.570       .  S
N126        N127   1.320       .  A
N126        N132   1.317       .  A
N126       Mn134   2.195       .  S
N127        C137   1.351       .  A
N128        N129   1.321       .  A
N128        N130   1.316       .  A
N128       Mn135   2.211       .  S
N129        C138   1.352       .  A
N130        N131   1.324       .  A
N130       Mn134   2.206       .  S
N131        C138   1.353       .  A
N132        N133   1.320       .  A
N132       Mn135   2.211       .  S
N133        C137   1.353       .  A
Mn134      Cl136   2.570       .  S
Mn135      Cl136   2.527       .  S
C139        C524   1.481       .  S
C139        C140   1.415       .  A
C139        C144   1.408       .  A
C140        C476   1.480       .  S
C140        C141   1.405       .  A
C141        C142   1.404       .  A
C141        H710   1.084       .  S
C142        C412   1.479       .  S
C142        C143   1.412       .  A
C143        C431   1.480       .  S
C143        C144   1.405       .  A
C144        H145   1.084       .  S
H146        C705   1.084   1_545  S
C147        C495   1.474       .  S
C147        C148   1.410       .  A
C147        C152   1.404       .  A
C148       C1636   1.474       .  S
C148       C1277   1.399       .  A
C149       C1276   1.404       .  A
C149       C1278   1.406   1_554  A
C149        H154   1.084       .  S
C150       C1524   1.475       .  S
C150        C151   1.416       .  A
C150       C1277   1.402   1_556  A
C151        C383   1.483       .  S
C151        C152   1.407   1_556  A
C152        H153   1.084       .  S
C155        C559   1.487       .  S
C155        C156   1.416       .  A
C155        C160   1.402       .  A
C156        C460   1.474       .  S
C156        C157   1.405       .  A
C157        C158   1.404       .  A
C157        H162   1.084       .  S
C158        C348   1.487       .  S
C158        C159   1.415       .  A
C159        C364   1.475       .  S
C159        C160   1.406       .  A
C160       H1289   1.084   1_455  S
H161       C1288   1.084       .  S
C163        C543   1.473       .  S
C163        C164   1.417       .  A
C163        C168   1.407       .  A
C164        C447   1.486       .  S
C164        C165   1.404       .  A
C165        C166   1.403   1_554  A
C165        H734   1.084       .  S
C166        C316   1.473       .  S
C166        C167   1.414       .  A
C167        C335   1.488       .  S
C167        C168   1.402   1_556  A
C168        H169   1.084       .  S
H170        C729   1.084   1_545  S
C171        N172   1.361       .  A
C171        N176   1.364       .  A
C171        C332   1.483       .  S
N172        C173   1.359       .  A
C173        N174   1.356       .  A
C173        C227   1.470       .  S
N174        C175   1.357       .  A
C175        N176   1.363       .  A
C175        C272   1.471       .  S
C177        N178   1.360       .  A
C177        N182   1.360       .  A
C177        C399   1.475       .  S
N178        C179   1.357       .  A
C179        N180   1.356       .  A
C179        C295   1.463       .  S
N180        C181   1.356       .  A
C181        N182   1.359       .  A
C181        C226   1.463       .  S
C183        N184   1.359       .  A
C183        N188   1.361       .  A
C183        C319   1.474       .  S
N184        C185   1.357       .  A
C185        N186   1.354       .  A
C185        C251   1.464       .  S
N186        C187   1.356       .  A
C187        N188   1.360       .  A
C187        C294   1.464       .  S
C189        N190   1.360       .  A
C189        N194   1.362       .  A
C189        C380   1.475       .  S
N190        C191   1.359       .  A
C191        N192   1.359       .  A
C191        C250   1.467       .  S
N192        C193   1.358       .  A
C193        N194   1.359       .  A
C193        C273   1.470       .  S
C195        N196   1.365       .  A
C195        N200   1.364       .  A
C195        C351   1.483       .  S
N196        C197   1.361       .  A
C197        N198   1.356       .  A
C197        C237   1.469       .  S
N198        C199   1.355       .  A
C199        N200   1.360       .  A
C199        C308   1.470       .  S
C201        N202   1.359       .  A
C201        N206   1.362       .  A
C201        C415   1.479       .  S
N202        C203   1.358       .  A
C203        N204   1.354       .  A
C203        C216   1.463       .  S
N204        C205   1.355       .  A
C205        N206   1.362       .  A
C205        C307   1.467       .  S
N207        N208   1.322       .  A
N207        N213   1.316       .  A
N207       Mn236   2.207       .  S
N208        C215   1.353       .  A
N209        N211   1.318       .  A
N209        N210   1.321       .  A
N209       Mn225   2.215       .  S
N210        C216   1.353       .  A
N211        N212   1.319       .  A
N211       Mn236   2.196       .  S
N212        C216   1.350       .  A
N213        N214   1.319       .  A
N213       Mn225   2.194       .  S
N214        C215   1.350       .  A
C215        C256   1.463       .  S
N217        N223   1.315       .  A
N217        N218   1.322       .  A
N217       Mn247   2.202       .  S
N218        C226   1.353       .  A
N219        N220   1.321       .  A
N219        N221   1.317       .  A
N219       Mn225   2.221       .  S
N220        C227   1.354       .  A
N221        N222   1.321       .  A
N221       Mn247   2.197       .  S
N222        C227   1.352       .  A
N223        N224   1.319       .  A
N223       Mn225   2.198       .  S
N224        C226   1.351       .  A
Mn225      Cl249   2.527       .  S
N228        N229   1.325       .  A
N228        N234   1.316       .  A
N228       Mn236   2.216       .  S
N229        C237   1.355       .  A
N230        N232   1.317       .  A
N230        N231   1.321       .  A
N230       Mn248   2.216       .  S
N231        C238   1.354       .  A
N232        N233   1.321       .  A
N232       Mn236   2.199       .  S
N233        C238   1.352       .  A
N234        N235   1.318       .  A
N234       Mn248   2.193       .  S
N235        C237   1.349       .  A
Mn236      Cl249   2.570       .  S
C238        C260   1.469       .  S
N239        N240   1.324       .  A
N239        N245   1.315       .  A
N239       Mn247   2.210       .  S
N240        C250   1.355       .  A
N241        N242   1.321       .  A
N241        N243   1.316       .  A
N241       Mn248   2.218       .  S
N242        C251   1.354       .  A
N243        N244   1.319       .  A
N243       Mn247   2.186       .  S
N244        C251   1.349       .  A
N245        N246   1.318       .  A
N245       Mn248   2.194       .  S
N246        C250   1.349       .  A
Mn247      Cl249   2.571       .  S
Mn248      Cl249   2.523       .  S
C252        N253   1.360       .  A
C252        N257   1.361       .  A
C252        C367   1.472       .  S
N253        C254   1.358       .  A
C254        N255   1.357       .  A
C254        C284   1.463       .  S
N255        C256   1.355       .  A
C256        N257   1.357       .  A
C258        N259   1.362       .  A
C258        N263   1.358       .  A
C258        C428   1.482       .  S
N259        C260   1.363       .  A
C260        N261   1.359       .  A
N261        C262   1.356       .  A
C262        N263   1.358       .  A
C262        C283   1.469       .  S
N264        N265   1.322       .  A
N264        N270   1.318       .  A
N264      Mn1421   2.201       .  S
N265        C272   1.352       .  A
N266        N268   1.315       .  A
N266        N267   1.320       .  A
N266       Mn282   2.194       .  S
N267        C273   1.350       .  A
N268        N269   1.324       .  A
N268       Mn293   2.217       .  S
N269        C273   1.355       .  A
N270        N271   1.321       .  A
N270      Mn1410   2.224       .  S
N271        C272   1.355       .  A
N274        N280   1.318       .  A
N274        N275   1.318       .  A
N274       Mn304   2.192       .  S
N275        C283   1.349       .  A
N276        N277   1.318       .  A
N276        N278   1.315       .  A
N276      Mn1410   2.191       .  S
N277        C284   1.349       .  A
N278        N279   1.323       .  A
N278      Mn1432   2.206       .  S
N279        C284   1.354       .  A
N280        N281   1.324       .  A
N280       Mn282   2.229       .  S
N281        C283   1.356       .  A
Mn282      N1398   2.230   1_455  S
Mn282      N1404   2.189   1_455  S
Mn282      Cl306   2.527       .  S
N285        N286   1.321       .  A
N285        N291   1.318       .  A
N285       Mn857   2.198   1_545  S
N286        C294   1.352       .  A
N287        N289   1.316       .  A
N287        N288   1.319       .  A
N287      Mn1433   2.197       .  S
N288        C295   1.350       .  A
N289        N290   1.322       .  A
N289      Mn1985   2.204   1_545  S
N290        C295   1.353       .  A
N291        N292   1.319       .  A
N291       Mn305   2.213       .  S
N292        C294   1.352       .  A
Mn293      N1392   2.201   1_455  S
Mn293       N849   2.200       .  S
Mn293      N1981   2.213   1_455  S
Mn293      Cl306   2.572       .  S
N296        N297   1.320       .  A
N296        N302   1.316       .  A
N296      Mn1996   2.186   1_545  S
N297        C307   1.350       .  A
N298        N299   1.319       .  A
N298        N300   1.315       .  A
N298       Mn305   2.200       .  S
N299        C308   1.350       .  A
N300        N301   1.325       .  A
N300       Mn868   2.209   1_545  S
N301        C308   1.354       .  A
N302        N303   1.321       .  A
N302      Mn1433   2.222       .  S
N303        C307   1.355       .  A
Mn304      N1406   2.208   1_455  S
Mn304      N1988   2.193   1_455  S
Mn304       N864   2.215       .  S
Mn304      Cl306   2.572       .  S
Mn305      N1415   2.191   1_455  S
Mn305      N1430   2.218   1_455  S
Mn305      Cl870   2.526   1_545  S
Cl306      Mn869   2.526       .  S
C309        C310   1.402       .  A
C309        C878   1.387       .  A
C309        S315   1.709       .  A
C310        C875   1.403       .  A
C310        H321   1.083       .  S
C311        C320   1.371       .  A
C311        C312   1.387       .  A
C311        C874   1.404   1_545  A
C312        C313   1.399       .  A
C312        S318   1.705       .  A
C313        C314   1.400       .  A
C313        H322   1.083       .  S
C314        C317   1.366       .  A
C314        C873   1.387   1_545  A
S315        C316   1.721       .  A
C316        C881   1.383       .  A
C317        C880   1.384   1_545  A
C317        H323   1.083       .  S
S318        C319   1.724       .  A
C319        C320   1.388       .  A
C320        H324   1.083       .  S
C325        C330   1.387       .  A
C325        C326   1.403       .  A
C325        S331   1.708       .  A
C326        C327   1.403       .  A
C326        H337   1.083       .  S
C327        C336   1.372       .  A
C327        C328   1.386       .  A
C328        C329   1.407       .  A
C328        S334   1.715       .  A
C329        C330   1.408       .  A
C329        H338   1.083       .  S
C330        C333   1.378       .  A
S331        C332   1.725       .  A
C332        C333   1.391       .  A
C333        H339   1.083       .  S
S334        C335   1.724       .  A
C335        C336   1.389       .  A
C336        H340   1.083       .  S
C341        C346   1.387       .  A
C341        C342   1.406       .  A
C341        S347   1.711       .  A
C342        C343   1.406       .  A
C342        H353   1.083       .  S
C343        C352   1.377       .  A
C343        C344   1.386       .  A
C344        C345   1.406       .  A
C344        S350   1.711       .  A
C345        C346   1.406       .  A
C345        H354   1.083       .  S
C346        C349   1.377       .  A
S347        C348   1.725       .  A
C348        C349   1.389       .  A
C349        H355   1.083       .  S
S350        C351   1.726       .  A
C351        C352   1.391       .  A
C352        H356   1.083       .  S
C357        C362   1.387       .  A
C357        C358   1.398       .  A
C357        S363   1.703       .  A
C358        C359   1.400       .  A
C358        H369   1.083       .  S
C359        C368   1.367       .  A
C359        C360   1.386       .  A
C360        C361   1.404       .  A
C360        S366   1.710       .  A
C361        C362   1.405       .  A
C361       H1498   1.083       .  S
C362       C1493   1.372       .  A
S363       C1492   1.722       .  A
C364        C365   1.387       .  A
C364       S1491   1.721   1_455  A
C365       C1490   1.372   1_455  A
C365        H371   1.083       .  S
S366        C367   1.725       .  A
C367        C368   1.386       .  A
C368        H372   1.083       .  S
H370       C1489   1.083       .  S
C373        C378   1.386       .  A
C373        C374   1.406       .  A
C373        S379   1.712       .  A
C374        C375   1.406       .  A
C374        H385   1.083       .  S
C375        C384   1.375       .  A
C375        C376   1.387       .  A
C376        C377   1.400       .  A
C376        S382   1.705       .  A
C377        C378   1.401       .  A
C377        H386   1.083       .  S
C378        C381   1.370       .  A
S379        C380   1.725       .  A
C380        C381   1.386       .  A
C381        H387   1.083       .  S
S382        C383   1.723       .  A
C383        C384   1.389       .  A
C384        H388   1.083       .  S
C389        C394   1.387       .  A
C389        C390   1.402       .  A
C389        S395   1.709       .  A
C390        C391   1.403       .  A
C390        H401   1.083       .  S
C391        C400   1.370       .  A
C391        C392   1.386       .  A
C392        C393   1.405       .  A
C392        S398   1.713       .  A
C393        C394   1.406       .  A
C393        H402   1.083       .  S
C394        C397   1.374       .  A
S395        C396   1.724       .  A
C396       C1278   1.483       .  S
C396        C397   1.388       .  A
C397       H1531   1.083       .  S
S398        C399   1.725       .  A
C399        C400   1.387       .  A
C400        H404   1.083       .  S
H403       C1525   1.083       .  S
C405        C410   1.387   1_565  A
C405        C406   1.402       .  A
C405        S975   1.707       .  A
C406        C407   1.403   1_565  A
C406        H981   1.083       .  S
C407        C416   1.374       .  A
C407        C408   1.387       .  A
C408        C409   1.404       .  A
C408        S414   1.708       .  A
C409        C410   1.404       .  A
C409        H418   1.083       .  S
C410        C413   1.374       .  A
S411        C412   1.723       .  A
S411        C969   1.713       .  A
C412        C977   1.385       .  A
C413        C976   1.386   1_545  A
C413        H419   1.083       .  S
S414        C415   1.726       .  A
C415        C416   1.388       .  A
C416        H420   1.083       .  S
H417        C970   1.083       .  S
C421        C426   1.386       .  A
C421        C422   1.406       .  A
C421        S427   1.709       .  A
C422        C423   1.405       .  A
C422        H433   1.083       .  S
C423        C432   1.377       .  A
C423        C424   1.387       .  A
C424        C425   1.403       .  A
C424        S430   1.708       .  A
C425        C426   1.403       .  A
C425        H434   1.083       .  S
C426        C429   1.375       .  A
S427        C428   1.727       .  A
C428        C429   1.389       .  A
C429        H435   1.083       .  S
S430        C431   1.721       .  A
C431        C432   1.388       .  A
C432        H436   1.083       .  S
C437        C442   1.386       .  A
C437        C438   1.404       .  A
C437        S443   1.709       .  A
C438        C439   1.404       .  A
C438       H1013   1.083       .  S
C439        C440   1.387       .  A
C439       C1012   1.374       .  A
C440        C441   1.407       .  A
C440        S446   1.714   1_545  A
C441        C442   1.407       .  A
C441        H450   1.083   1_545  S
C442        C445   1.377       .  A
S443        C444   1.726       .  A
C444        C445   1.392       .  A
C445        H451   1.083       .  S
S446       C1011   1.723       .  A
C447        C448   1.388       .  A
C447       S1010   1.725       .  A
C448       C1003   1.375       .  A
C448        H452   1.083       .  S
H449       C1002   1.083       .  S
C453        C458   1.387       .  A
C453        C454   1.403       .  A
C453        S459   1.711       .  A
C454        C455   1.405       .  A
C454        H465   1.083       .  S
C455        C464   1.372       .  A
C455        C456   1.387       .  A
C456        C457   1.397       .  A
C456        S462   1.702       .  A
C457        C458   1.398       .  A
C457        H466   1.083       .  S
C458        C461   1.363       .  A
S459        C460   1.723       .  A
C460        C461   1.383       .  A
C461        H467   1.083       .  S
S462        C463   1.721       .  A
C463        C464   1.388       .  A
C464        H468   1.083       .  S
C469        C474   1.386       .  A
C469        C470   1.402       .  A
C469        S475   1.709   1_545  A
C470        C471   1.403       .  A
C470        H481   1.083   1_545  S
C471        C480   1.370       .  A
C471        C472   1.386       .  A
C472        C473   1.407       .  A
C472        S478   1.716       .  A
C473        C474   1.408       .  A
C473        H482   1.083       .  S
C474       C1041   1.377       .  A
S475       C1040   1.724       .  A
C476        C477   1.385       .  A
C476       S1039   1.724       .  A
C477       C1038   1.372       .  A
C477        H483   1.083       .  S
S478        C479   1.726       .  A
C479        C480   1.389       .  A
C480        H484   1.083       .  S
C485        C490   1.387       .  A
C485        C486   1.402       .  A
C485        S491   1.708       .  A
C486        C487   1.402       .  A
C486        H497   1.083       .  S
C487        C496   1.370       .  A
C487        C488   1.387       .  A
C488        C489   1.403       .  A
C488        S494   1.710       .  A
C489        C490   1.404       .  A
C489        H498   1.083       .  S
C490        C493   1.372       .  A
S491        C492   1.724       .  A
C492        C493   1.389       .  A
C493        H499   1.083       .  S
S494        C495   1.721       .  A
C495        C496   1.384       .  A
C496        H500   1.083       .  S
C501        C506   1.388       .  A
C501        C502   1.401       .  A
C501       S1635   1.707       .  A
C502        C503   1.402       .  A
C502       H1641   1.083       .  S
C503        C512   1.370       .  A
C503        C504   1.387       .  A
C504        C505   1.402       .  A
C504        S510   1.709       .  A
C505        C506   1.403       .  A
C505        H514   1.083       .  S
C506        C509   1.371       .  A
S507       C1629   1.708   1_455  A
S507       C1636   1.719       .  A
C508       C1276   1.474       .  S
C508        C509   1.384       .  A
C508       S1635   1.721       .  A
C509        H515   1.083       .  S
S510        C511   1.724       .  A
C511        C512   1.387       .  A
C512        H516   1.083       .  S
H513       C1630   1.083   1_455  S
C517        C522   1.387       .  A
C517        C518   1.403       .  A
C517        S523   1.709       .  A
C518        C519   1.404       .  A
C518        H529   1.083       .  S
C519        C528   1.372       .  A
C519        C520   1.386       .  A
C520        C521   1.405       .  A
C520        S526   1.712       .  A
C521        C522   1.406       .  A
C521        H530   1.083       .  S
C522        C525   1.375       .  A
S523        C524   1.722       .  A
C524        C525   1.388       .  A
C525        H531   1.083       .  S
S526        C527   1.726       .  A
C527        C528   1.389       .  A
C528        H532   1.083       .  S
C533        C538   1.387       .  A
C533        C534   1.400       .  A
C533        S539   1.702       .  A
C534        C535   1.400       .  A
C534        H545   1.083       .  S
C535        C544   1.369       .  A
C535        C536   1.387       .  A
C536        C537   1.405       .  A
C536        S542   1.710       .  A
C537        C538   1.405       .  A
C537        H546   1.083       .  S
C538        C541   1.376       .  A
S539        C540   1.724       .  A
C540        C541   1.390       .  A
C541        H547   1.083       .  S
S542        C543   1.722       .  A
C543        C544   1.383       .  A
C544        H548   1.083       .  S
C549        C554   1.386       .  A
C549        C550   1.403       .  A
C549        S555   1.708       .  A
C550        C551   1.404       .  A
C550        H561   1.083       .  S
C551        C560   1.373       .  A
C551       C1680   1.386       .  A
C552        C553   1.406       .  A
C552       C1679   1.386       .  A
C552        S558   1.712   1_655  A
C553       C1682   1.406       .  A
C553        H562   1.083       .  S
C554        C557   1.378       .  A
C554       C1681   1.407       .  A
S555        C556   1.726       .  A
C556        C557   1.391       .  A
C557        H563   1.083       .  S
S558        C559   1.724       .  A
C559       C1688   1.388   1_455  A
C560       C1687   1.388       .  A
C560        H564   1.083       .  S
C565        N566   1.363       .  A
C565        N570   1.358       .  A
C565       C1120   1.480       .  S
N566        C567   1.365       .  A
C567        N568   1.358       .  A
C567        C609   1.471       .  S
N568        C569   1.356       .  A
C569        N570   1.356       .  A
C569        C666   1.466       .  S
C571        N572   1.361       .  A
C571        N576   1.359       .  A
C571       C1104   1.475       .  S
N572        C573   1.359       .  A
C573        N574   1.358       .  A
C573        C678   1.467       .  S
N574        C575   1.357       .  A
C575        N576   1.357       .  A
C575        C597   1.464       .  S
C577        N578   1.361       .  A
C577        N582   1.361       .  A
C577       C1091   1.476       .  S
N578        C579   1.358       .  A
C579        N580   1.358       .  A
C579        C667   1.467       .  S
N580        C581   1.358       .  A
C581        N582   1.358       .  A
C581        C632   1.467       .  S
C583        N584   1.361       .  A
C583        N588   1.359       .  A
C583       C1075   1.475       .  S
N584        C585   1.359       .  A
C585        N586   1.355       .  A
C585        C598   1.464       .  S
N586        C587   1.355       .  A
C587        N588   1.359       .  A
C587        C701   1.463       .  S
N589        N590   1.323       .  A
N589       N1723   1.316       .  A
N589       Mn618   2.211   1_655  S
N590       C1725   1.354       .  A
N591       N1721   1.317       .  A
N591        N592   1.320       .  A
N592        C598   1.353       .  A
N593       N1719   1.318       .  A
N593        N594   1.321       .  A
N594       C1726   1.353       .  A
N595       N1717   1.316       .  A
N595        N596   1.319       .  A
N595       Mn607   2.194       .  S
N596        C597   1.350       .  A
C597       N1718   1.353       .  A
C598       N1722   1.351       .  A
N599       N1733   1.316       .  A
N599        N600   1.325       .  A
N600       C1736   1.356       .  A
N601        N602   1.322       .  A
N601       N1731   1.317       .  A
N601       Mn607   2.221       .  S
N602        C609   1.355       .  A
N603       N1729   1.317       .  A
N603        N604   1.321       .  A
N603       Mn629   2.192   1_655  S
N604       C1737   1.351       .  A
N605       N1727   1.315       .  A
N605        N606   1.318       .  A
N606        C608   1.350       .  A
Mn607     Cl1759   2.524       .  S
C608       N1728   1.353       .  A
C608        C642   1.463       .  S
C609       N1732   1.352       .  A
N610        N611   1.326       .  A
N610        N616   1.317       .  A
N611        C619   1.355       .  A
N612        N614   1.317       .  A
N612        N613   1.320       .  A
N612       Mn630   2.208       .  S
N613        C620   1.352       .  A
N614        N615   1.321       .  A
N614       Mn618   2.202       .  S
N615        C620   1.353       .  A
N616        N617   1.319       .  A
N617        C619   1.350       .  A
Mn618      Cl631   2.576       .  S
C619        C656   1.471       .  S
C620        C636   1.466       .  S
N621        N622   1.324       .  A
N621        N627   1.316       .  A
N621       Mn629   2.217       .  S
N622        C632   1.356       .  A
N623        N624   1.322       .  A
N623        N625   1.318       .  A
N624        C633   1.355       .  A
N625        N626   1.319       .  A
N626        C633   1.349       .  A
N627        N628   1.318       .  A
N627       Mn630   2.190       .  S
N628        C632   1.348       .  A
Mn629      Cl631   2.574       .  S
Mn630      Cl631   2.523       .  S
Cl631     Mn1735   2.524   1_455  S
C633        C650   1.465       .  S
C634        N635   1.359       .  A
C634        N639   1.359       .  A
C634       C1056   1.474       .  S
N635        C636   1.358       .  A
C636        N637   1.358       .  A
N637        C638   1.357       .  A
C638        N639   1.358       .  A
C638        C677   1.465       .  S
C640        N641   1.361       .  A
C640        N645   1.363       .  A
C640       C1043   1.480       .  S
N641        C642   1.358       .  A
C642        N643   1.356       .  A
N643        C644   1.356       .  A
C644        N645   1.360       .  A
C644        C689   1.468       .  S
C646        N647   1.360       .  A
C646        N651   1.360       .  A
C646       C1027   1.477       .  S
N647        C648   1.359       .  A
C648        N649   1.356       .  A
C648        C688   1.466       .  S
N649        C650   1.356       .  A
C650        N651   1.360       .  A
C652        N653   1.361       .  A
C652        N657   1.367       .  A
C652       C1008   1.484       .  S
N653        C654   1.356       .  A
C654        N655   1.354       .  A
C654        C702   1.466       .  S
N655        C656   1.357       .  A
C656        N657   1.365       .  A
N658        N659   1.319       .  A
N658        N664   1.317       .  A
N658       Mn687   2.195       .  S
N659        C666   1.351       .  A
N660        N662   1.315       .  A
N660        N661   1.319       .  A
N660       Mn676   2.193       .  S
N661        C667   1.349       .  A
N662        N663   1.324       .  A
N662       Mn687   2.213       .  S
N663        C667   1.355       .  A
N664        N665   1.322       .  A
N664       Mn676   2.213       .  S
N665        C666   1.354       .  A
N668        N674   1.317       .  A
N668        N669   1.319       .  A
N668       Mn698   2.194       .  S
N669        C677   1.351       .  A
N670        N671   1.318       .  A
N670        N672   1.315       .  A
N670       Mn676   2.191       .  S
N671        C678   1.349       .  A
N672        N673   1.324       .  A
N672       Mn698   2.215       .  S
N673        C678   1.356       .  A
N674        N675   1.321       .  A
N674       Mn676   2.212       .  S
N675        C677   1.353       .  A
Mn676      Cl700   2.526       .  S
N679        N680   1.320       .  A
N679        N685   1.317       .  A
N679       Mn687   2.195       .  S
N680        C688   1.351       .  A
N681        N683   1.316       .  A
N681        N682   1.319       .  A
N681       Mn699   2.202       .  S
N682        C689   1.351       .  A
N683        N684   1.324       .  A
N683       Mn687   2.211       .  S
N684        C689   1.354       .  A
N685        N686   1.321       .  A
N685       Mn699   2.214       .  S
N686        C688   1.353       .  A
Mn687      Cl700   2.570       .  S
N690        N691   1.319       .  A
N690        N696   1.317       .  A
N690       Mn698   2.190       .  S
N691        C701   1.350       .  A
N692        N693   1.319       .  A
N692        N694   1.316       .  A
N692       Mn699   2.199       .  S
N693        C702   1.350       .  A
N694        N695   1.323       .  A
N694       Mn698   2.211       .  S
N695        C702   1.354       .  A
N696        N697   1.320       .  A
N696       Mn699   2.214       .  S
N697        C701   1.353       .  A
Mn698      Cl700   2.570       .  S
Mn699      Cl700   2.526       .  S
C703       C1088   1.477       .  S
C703        C704   1.417       .  A
C703        C708   1.407       .  A
C704       C1040   1.488       .  S
C704        C705   1.406       .  A
C705        C706   1.406       .  A
C706        C976   1.479       .  S
C706        C707   1.415       .  A
C707        C995   1.487       .  S
C707        C708   1.403       .  A
C708        H709   1.084       .  S
C711       C1059   1.473       .  S
C711        C712   1.410       .  A
C711        C716   1.401       .  A
C712       C2200   1.473       .  S
C712       C1841   1.402       .  A
C713       C1840   1.400       .  A
C713       C1842   1.403       .  A
C713        H718   1.085       .  S
C714       C2088   1.479   1_554  S
C714       C1841   1.405       .  A
C714        C715   1.413       .  A
C715        C947   1.474   1_554  S
C715        C716   1.404       .  A
C716        H717   1.084       .  S
C719       C1123   1.487   1_455  S
C719        C720   1.416       .  A
C719        C724   1.401       .  A
C720       C1024   1.477       .  S
C720        C721   1.409       .  A
C721        C722   1.408       .  A
C721        H726   1.084       .  S
C722        C912   1.494       .  S
C722        C723   1.417       .  A
C723        C928   1.476   1_455  S
C723        C724   1.406       .  A
C724       H1853   1.084   1_455  S
H725       C1852   1.084       .  S
C727       C1107   1.473       .  S
C727        C728   1.414       .  A
C727        C732   1.408       .  A
C728       C1011   1.480       .  S
C728        C729   1.403       .  A
C729        C730   1.402       .  A
C730        C880   1.473   1_554  S
C730        C731   1.413       .  A
C731        C899   1.485   1_554  S
C731        C732   1.403       .  A
C732        H733   1.084       .  S
C735        N736   1.361       .  A
C735        N740   1.363       .  A
C735        C896   1.483       .  S
N736        C737   1.359       .  A
C737        N738   1.356       .  A
C737        C791   1.470       .  S
N738        C739   1.357       .  A
C739        N740   1.363       .  A
C739        C836   1.471       .  S
C741        N742   1.363       .  A
C741        N746   1.361       .  A
C741        C963   1.479       .  S
N742        C743   1.360       .  A
C743        N744   1.357       .  A
C743        C859   1.470       .  S
N744        C745   1.358       .  A
C745        N746   1.358       .  A
C745        C790   1.468       .  S
C747        N748   1.355       .  A
C747        N752   1.360       .  A
C747        C883   1.468       .  S
N748        C749   1.353       .  A
C749        N750   1.356       .  A
C749        C815   1.461       .  S
N750        C751   1.358       .  A
C751        N752   1.360       .  A
C751        C858   1.464       .  S
C753        N754   1.360       .  A
C753        N758   1.364       .  A
C753        C944   1.478       .  S
N754        C755   1.357       .  A
C755        N756   1.355       .  A
C755        C814   1.464       .  S
N756        C757   1.356       .  A
C757        N758   1.361       .  A
C757        C837   1.469       .  S
C759        N760   1.366       .  A
C759        N764   1.362       .  A
C759        C915   1.484       .  S
N760        C761   1.363       .  A
C761        N762   1.357       .  A
C761        C801   1.474       .  S
N762        C763   1.357       .  A
C763        N764   1.359       .  A
C763        C872   1.471       .  S
C765        N766   1.358       .  A
C765        N770   1.359       .  A
C765        C979   1.476       .  S
N766        C767   1.358       .  A
C767        N768   1.356       .  A
C767        C780   1.463       .  S
N768        C769   1.356       .  A
C769        N770   1.360       .  A
C769        C871   1.463       .  S
N771        N772   1.322       .  A
N771        N777   1.315       .  A
N771       Mn800   2.206       .  S
N772        C779   1.352       .  A
N773        N775   1.318       .  A
N773        N774   1.321       .  A
N773       Mn789   2.214       .  S
N774        C780   1.353       .  A
N775        N776   1.319       .  A
N775       Mn800   2.195       .  S
N776        C780   1.351       .  A
N777        N778   1.319       .  A
N777       Mn789   2.191       .  S
N778        C779   1.350       .  A
C779        C820   1.463       .  S
N781        N787   1.314       .  A
N781        N782   1.325       .  A
N781       Mn811   2.212       .  S
N782        C790   1.356       .  A
N783        N784   1.321       .  A
N783        N785   1.317       .  A
N783       Mn789   2.222       .  S
N784        C791   1.355       .  A
N785        N786   1.321       .  A
N785       Mn811   2.197       .  S
N786        C791   1.352       .  A
N787        N788   1.318       .  A
N787       Mn789   2.193       .  S
N788        C790   1.349       .  A
Mn789      Cl813   2.525       .  S
N792        N793   1.326       .  A
N792        N798   1.315       .  A
N792       Mn800   2.217       .  S
N793        C801   1.356       .  A
N794        N796   1.317       .  A
N794        N795   1.320       .  A
N794       Mn812   2.212       .  S
N795        C802   1.354       .  A
N796        N797   1.319       .  A
N796       Mn800   2.191       .  S
N797        C802   1.350       .  A
N798        N799   1.319       .  A
N798       Mn812   2.198       .  S
N799        C801   1.350       .  A
Mn800      Cl813   2.569       .  S
C802        C824   1.463       .  S
N803        N804   1.322       .  A
N803        N809   1.315       .  A
N803       Mn811   2.201       .  S
N804        C814   1.353       .  A
N805        N806   1.320       .  A
N805        N807   1.318       .  A
N805       Mn812   2.208       .  S
N806        C815   1.352       .  A
N807        N808   1.318       .  A
N807       Mn811   2.196       .  S
N808        C815   1.351       .  A
N809        N810   1.319       .  A
N809       Mn812   2.198       .  S
N810        C814   1.350       .  A
Mn811      Cl813   2.571       .  S
Mn812      Cl813   2.524       .  S
C816        N817   1.358       .  A
C816        N821   1.362       .  A
C816        C931   1.472       .  S
N817        C818   1.356       .  A
C818        N819   1.355       .  A
C818        C848   1.459       .  S
N819        C820   1.355       .  A
C820        N821   1.359       .  A
C822        N823   1.360       .  A
C822        N827   1.362       .  A
C822        C992   1.480       .  S
N823        C824   1.360       .  A
C824        N825   1.355       .  A
N825        C826   1.354       .  A
C826        N827   1.362       .  A
C826        C847   1.470       .  S
N828        N829   1.321       .  A
N828        N834   1.317       .  A
N828      Mn1985   2.195       .  S
N829        C836   1.351       .  A
N830        N832   1.316       .  A
N830        N831   1.319       .  A
N830       Mn846   2.196       .  S
N831        C837   1.350       .  A
N832        N833   1.325       .  A
N832       Mn857   2.217       .  S
N833        C837   1.355       .  A
N834        N835   1.321       .  A
N834      Mn1974   2.226       .  S
N835        C836   1.355       .  A
N838        N844   1.318       .  A
N838        N839   1.320       .  A
N838       Mn868   2.189       .  S
N839        C847   1.349       .  A
N840        N841   1.317       .  A
N840        N842   1.315       .  A
N840      Mn1974   2.184       .  S
N841        C848   1.348       .  A
N842        N843   1.322       .  A
N842      Mn1996   2.204       .  S
N843        C848   1.354       .  A
N844        N845   1.323       .  A
N844       Mn846   2.235       .  S
N845        C847   1.357       .  A
Mn846      N1962   2.234   1_455  S
Mn846      N1968   2.196   1_455  S
Mn846      Cl870   2.528       .  S
N849        N850   1.321       .  A
N849        N855   1.318       .  A
N850        C858   1.352       .  A
N851        N853   1.316       .  A
N851        N852   1.320       .  A
N851      Mn1997   2.201       .  S
N852        C859   1.351       .  A
N853        N854   1.323       .  A
N853      Mn1421   2.209       .  S
N854        C859   1.353       .  A
N855        N856   1.319       .  A
N855       Mn869   2.209       .  S
N856        C858   1.352       .  A
Mn857      N1956   2.201   1_455  S
Mn857      N1417   2.220   1_465  S
Mn857      Cl870   2.576       .  S
N860        N861   1.318       .  A
N860        N866   1.317       .  A
N860      Mn1432   2.186       .  S
N861        C871   1.349       .  A
N862        N863   1.319       .  A
N862        N864   1.315       .  A
N862       Mn869   2.197       .  S
N863        C872   1.350       .  A
N864        N865   1.325       .  A
N865        C872   1.356       .  A
N866        N867   1.321       .  A
N866      Mn1997   2.216       .  S
N867        C871   1.355       .  A
Mn868      N1970   2.200   1_455  S
Mn868      N1424   2.190   1_465  S
Mn868      Cl870   2.573       .  S
Mn869      N1979   2.197   1_455  S
Mn869      N1994   2.215   1_455  S
C873        C874   1.402       .  A
C873        S879   1.710       .  A
C874        H885   1.083       .  S
C875        C884   1.370       .  A
C875        C876   1.387       .  A
C876        C877   1.397       .  A
C876        S882   1.701       .  A
C877        C878   1.398       .  A
C877        H886   1.083       .  S
C878        C881   1.363       .  A
S879        C880   1.721       .  A
C881        H887   1.083       .  S
S882        C883   1.722       .  A
C883        C884   1.386       .  A
C884        H888   1.083       .  S
C889        C894   1.386       .  A
C889        C890   1.402       .  A
C889        S895   1.708       .  A
C890        C891   1.402       .  A
C890        H901   1.083       .  S
C891        C900   1.371       .  A
C891        C892   1.386       .  A
C892        C893   1.407       .  A
C892        S898   1.715       .  A
C893        C894   1.408       .  A
C893        H902   1.083       .  S
C894        C897   1.377       .  A
S895        C896   1.725       .  A
C896        C897   1.391       .  A
C897        H903   1.083       .  S
S898        C899   1.724       .  A
C899        C900   1.387       .  A
C900        H904   1.083       .  S
C905        C910   1.386       .  A
C905        C906   1.405       .  A
C905        S911   1.709       .  A
C906        C907   1.405       .  A
C906        H917   1.083       .  S
C907        C916   1.377       .  A
C907        C908   1.386       .  A
C908        C909   1.408       .  A
C908        S914   1.713       .  A
C909        C910   1.408       .  A
C909        H918   1.083       .  S
C910        C913   1.381       .  A
S911        C912   1.727       .  A
C912        C913   1.392       .  A
C913        H919   1.083       .  S
S914        C915   1.728       .  A
C915        C916   1.390       .  A
C916        H920   1.083       .  S
C921        C926   1.387       .  A
C921        C922   1.398       .  A
C921        S927   1.702       .  A
C922        C923   1.399       .  A
C922        H933   1.083       .  S
C923        C932   1.368       .  A
C923        C924   1.387       .  A
C924        C925   1.404       .  A
C924        S930   1.708       .  A
C925        C926   1.404       .  A
C925       H2062   1.083       .  S
C926       C2057   1.372       .  A
S927       C2056   1.720       .  A
C928        C929   1.387       .  A
C928       S2055   1.721       .  A
C929       C2054   1.372       .  A
C929        H935   1.083   1_655  S
S930        C931   1.725       .  A
C931        C932   1.385       .  A
C932        H936   1.083       .  S
H934       C2053   1.083       .  S
C937        C942   1.387       .  A
C937        C938   1.404       .  A
C937        S943   1.708       .  A
C938        C939   1.404       .  A
C938        H949   1.083       .  S
C939        C948   1.373       .  A
C939        C940   1.388       .  A
C940        C941   1.401       .  A
C940        S946   1.706       .  A
C941        C942   1.402       .  A
C941        H950   1.083       .  S
C942        C945   1.372       .  A
S943        C944   1.727       .  A
C944        C945   1.387       .  A
C945        H951   1.083       .  S
S946        C947   1.720       .  A
C947        C948   1.385       .  A
C948        H952   1.083       .  S
C953        C958   1.387       .  A
C953        C954   1.402       .  A
C953        S959   1.708       .  A
C954        C955   1.403       .  A
C954        H965   1.083       .  S
C955        C964   1.372       .  A
C955        C956   1.386       .  A
C956        C957   1.403       .  A
C956        S962   1.709       .  A
C957        C958   1.404       .  A
C957        H966   1.083       .  S
C958        C961   1.372       .  A
S959        C960   1.721       .  A
C960       C1842   1.475   1_556  S
C960        C961   1.385       .  A
C961       H2095   1.083       .  S
S962        C963   1.726       .  A
C963        C964   1.389       .  A
C964        H968   1.083       .  S
H967       C2089   1.083       .  S
C969        C974   1.387       .  A
C969        C970   1.405       .  A
C970        C971   1.406       .  A
C971        C980   1.374       .  A
C971        C972   1.387       .  A
C972        C973   1.400       .  A
C972        S978   1.706       .  A
C973        C974   1.401       .  A
C973        H982   1.083       .  S
C974        C977   1.369       .  A
S975        C976   1.722       .  A
C977        H983   1.083       .  S
S978        C979   1.723       .  A
C979        C980   1.390       .  A
C980        H984   1.083       .  S
C985        C990   1.387       .  A
C985        C986   1.400       .  A
C985        S991   1.708       .  A
C986        C987   1.401       .  A
C986        H997   1.083       .  S
C987        C996   1.369       .  A
C987        C988   1.386       .  A
C988        C989   1.408       .  A
C988        S994   1.716       .  A
C989        C990   1.409       .  A
C989        H998   1.083       .  S
C990        C993   1.377       .  A
S991        C992   1.722       .  A
C992        C993   1.392       .  A
C993        H999   1.083       .  S
S994        C995   1.727       .  A
C995        C996   1.386       .  A
C996       H1000   1.083       .  S
C1001      C1006   1.386       .  A
C1001      C1002   1.404       .  A
C1001      S1007   1.705       .  A
C1002      C1003   1.403       .  A
C1003      C1004   1.387       .  A
C1004      C1005   1.408       .  A
C1004      S1010   1.712       .  A
C1005      C1006   1.407       .  A
C1005      H1014   1.083       .  S
C1006      C1009   1.380       .  A
S1007      C1008   1.727       .  A
C1008      C1009   1.391       .  A
C1009      H1015   1.083       .  S
C1011      C1012   1.385   1_565  A
C1012      H1016   1.083       .  S
C1017      C1022   1.387       .  A
C1017      C1018   1.406       .  A
C1017      S1023   1.714       .  A
C1018      C1019   1.407       .  A
C1018      H1029   1.083       .  S
C1019      C1028   1.375       .  A
C1019      C1020   1.387       .  A
C1020      C1021   1.399       .  A
C1020      S1026   1.705       .  A
C1021      C1022   1.400       .  A
C1021      H1030   1.083       .  S
C1022      C1025   1.367       .  A
S1023      C1024   1.724       .  A
C1024      C1025   1.383       .  A
C1025      H1031   1.083       .  S
S1026      C1027   1.723       .  A
C1027      C1028   1.390       .  A
C1028      H1032   1.083       .  S
C1033      C1038   1.387       .  A
C1033      C1034   1.406       .  A
C1033      S1039   1.713       .  A
C1034      C1035   1.407       .  A
C1034      H1045   1.083       .  S
C1035      C1044   1.375       .  A
C1035      C1036   1.386       .  A
C1036      C1037   1.402       .  A
C1036      S1042   1.707       .  A
C1037      C1038   1.403       .  A
C1037      H1046   1.083       .  S
C1040      C1041   1.391   1_565  A
C1041      H1047   1.083       .  S
S1042      C1043   1.724       .  A
C1043      C1044   1.392       .  A
C1044      H1048   1.083       .  S
C1049      C1054   1.387       .  A
C1049      C1050   1.400       .  A
C1049      S1055   1.706       .  A
C1050      C1051   1.401       .  A
C1050      H1061   1.083       .  S
C1051      C1060   1.369       .  A
C1051      C1052   1.387       .  A
C1052      C1053   1.403       .  A
C1052      S1058   1.709       .  A
C1053      C1054   1.404       .  A
C1053      H1062   1.083       .  S
C1054      C1057   1.371       .  A
S1055      C1056   1.723       .  A
C1056      C1057   1.388       .  A
C1057      H1063   1.083       .  S
S1058      C1059   1.720       .  A
C1059      C1060   1.383       .  A
C1060      H1064   1.083       .  S
C1065      C1070   1.388       .  A
C1065      C1066   1.401       .  A
C1065      S2199   1.706       .  A
C1066      C1067   1.401       .  A
C1066      H2205   1.083       .  S
C1067      C1076   1.370       .  A
C1067      C1068   1.387       .  A
C1068      C1069   1.404       .  A
C1068      S1074   1.709       .  A
C1069      C1070   1.404       .  A
C1069      H1078   1.083       .  S
C1070      C1073   1.373       .  A
S1071      C2193   1.708   1_455  A
S1071      C2200   1.719       .  A
C1072      C1840   1.477       .  S
C1072      C1073   1.386       .  A
C1072      S2199   1.721       .  A
C1073      H1079   1.083       .  S
S1074      C1075   1.725       .  A
C1075      C1076   1.386       .  A
C1076      H1080   1.083       .  S
H1077      C2194   1.083   1_455  S
C1081      C1086   1.387       .  A
C1081      C1082   1.402       .  A
C1081      S1087   1.709       .  A
C1082      C1083   1.403       .  A
C1082      H1093   1.083       .  S
C1083      C1092   1.372       .  A
C1083      C1084   1.386       .  A
C1084      C1085   1.403       .  A
C1084      S1090   1.708       .  A
C1085      C1086   1.404       .  A
C1085      H1094   1.083       .  S
C1086      C1089   1.372       .  A
S1087      C1088   1.722       .  A
C1088      C1089   1.386       .  A
C1089      H1095   1.083       .  S
S1090      C1091   1.725       .  A
C1091      C1092   1.388       .  A
C1092      H1096   1.083       .  S
C1097      C1102   1.387       .  A
C1097      C1098   1.400       .  A
C1097      S1103   1.707       .  A
C1098      C1099   1.401       .  A
C1098      H1109   1.083       .  S
C1099      C1108   1.369       .  A
C1099      C1100   1.387       .  A
C1100      C1101   1.404       .  A
C1100      S1106   1.712       .  A
C1101      C1102   1.405       .  A
C1101      H1110   1.083       .  S
C1102      C1105   1.372       .  A
S1103      C1104   1.722       .  A
C1104      C1105   1.390       .  A
C1105      H1111   1.083       .  S
S1106      C1107   1.722       .  A
C1107      C1108   1.383       .  A
C1108      H1112   1.083       .  S
C1113      C1118   1.387       .  A
C1113      C1114   1.402       .  A
C1113      S1119   1.705       .  A
C1114      C1115   1.402       .  A
C1114      H1125   1.083       .  S
C1115      C1124   1.373       .  A
C1115      C2244   1.386       .  A
C1116      C2243   1.386       .  A
C1116      C1117   1.408       .  A
C1116      S1122   1.713   1_655  A
C1117      C2246   1.408       .  A
C1117      H1126   1.083       .  S
C1118      C2245   1.407       .  A
C1118      C1121   1.378       .  A
S1119      C1120   1.725       .  A
C1120      C1121   1.390       .  A
C1121      H1127   1.083       .  S
S1122      C1123   1.726   1_455  A
C1123      C2252   1.387       .  A
C1124      C2251   1.388       .  A
C1124      H1128   1.083       .  S
C1129      N1130   1.362       .  A
C1129      N1134   1.358       .  A
C1129      C1684   1.479       .  S
N1130      C1131   1.363       .  A
C1131      N1132   1.358       .  A
C1131      C1173   1.468       .  S
N1132      C1133   1.356       .  A
C1133      N1134   1.357       .  A
C1133      C1230   1.465       .  S
C1135      N1136   1.359       .  A
C1135      N1140   1.359       .  A
C1135      C1668   1.471       .  S
N1136      C1137   1.357       .  A
C1137      N1138   1.356       .  A
C1137      C1242   1.460       .  S
N1138      C1139   1.355       .  A
C1139      N1140   1.357       .  A
C1139      C1161   1.459       .  S
C1141      N1142   1.362       .  A
C1141      N1146   1.362       .  A
C1141      C1655   1.478       .  S
N1142      C1143   1.358       .  A
C1143      N1144   1.353       .  A
C1143      C1231   1.464       .  S
N1144      C1145   1.355       .  A
C1145      N1146   1.361       .  A
C1145      C1196   1.464       .  S
C1147      N1148   1.361       .  A
C1147      N1152   1.359       .  A
C1147      C1639   1.477       .  S
N1148      C1149   1.359       .  A
C1149      N1150   1.358       .  A
C1149      C1162   1.469       .  S
N1150      C1151   1.357       .  A
C1151      N1152   1.359       .  A
C1151      C1265   1.468       .  S
N1153      N1154   1.323       .  A
N1153     Mn1182   2.209       .  S
N1155      N1156   1.321       .  A
N1155     Mn1735   2.215   1_545  S
N1156      C1162   1.353       .  A
N1157      N1158   1.320       .  A
N1157     Mn1746   2.192   1_545  S
N1159      N1160   1.318       .  A
N1159     Mn1171   2.190       .  S
N1160      C1161   1.349       .  A
N1163      N1164   1.322       .  A
N1163     Mn1757   2.204   1_545  S
N1165      N1166   1.321       .  A
N1165     Mn1171   2.217       .  S
N1166      C1173   1.354       .  A
N1167      N1168   1.321       .  A
N1167     Mn1193   2.197       .  S
N1169      N1170   1.318       .  A
N1169     Mn1735   2.192   1_545  S
N1170      C1172   1.349       .  A
Mn1171     N1719   2.213       .  S
Mn1171     N1733   2.194       .  S
C1172      C1206   1.465       .  S
N1174      N1175   1.325       .  A
N1174      N1180   1.316       .  A
N1174     Mn1746   2.214   1_545  S
N1175      C1183   1.355       .  A
N1176      N1178   1.317       .  A
N1176      N1177   1.320       .  A
N1176     Mn1194   2.221       .  S
N1177      C1184   1.354       .  A
N1178      N1179   1.321       .  A
N1178     Mn1182   2.195       .  S
N1179      C1184   1.352       .  A
N1180      N1181   1.318       .  A
N1180     Mn1758   2.193   1_545  S
N1181      C1183   1.349       .  A
Mn1182     N1721   2.193       .  S
Mn1182     N1738   2.215       .  S
Mn1182    Cl1195   2.574       .  S
C1183      C1220   1.467       .  S
C1184      C1200   1.469       .  S
N1185      N1186   1.324       .  A
N1185      N1191   1.316       .  A
N1185     Mn1193   2.205       .  S
N1186      C1196   1.354       .  A
N1187      N1188   1.321       .  A
N1187      N1189   1.317       .  A
N1187     Mn1758   2.216   1_545  S
N1188      C1197   1.354       .  A
N1189      N1190   1.319       .  A
N1189     Mn1757   2.187   1_545  S
N1190      C1197   1.349       .  A
N1191      N1192   1.317       .  A
N1191     Mn1194   2.195       .  S
N1192      C1196   1.349       .  A
Mn1193     N1727   2.202       .  S
Mn1193     N1753   2.190       .  S
Mn1193    Cl1195   2.574       .  S
Mn1194     N1744   2.191       .  S
Mn1194     N1751   2.220       .  S
Mn1194    Cl1195   2.522       .  S
C1197      C1214   1.463       .  S
C1198      N1199   1.363       .  A
C1198      N1203   1.361       .  A
C1198      C1620   1.480       .  S
N1199      C1200   1.361       .  A
C1200      N1201   1.355       .  A
N1201      C1202   1.355       .  A
C1202      N1203   1.360       .  A
C1202      C1241   1.467       .  S
C1204      N1205   1.361       .  A
C1204      N1209   1.360       .  A
C1204      C1607   1.476       .  S
N1205      C1206   1.358       .  A
C1206      N1207   1.356       .  A
N1207      C1208   1.357       .  A
C1208      N1209   1.357       .  A
C1208      C1253   1.463       .  S
C1210      N1211   1.359       .  A
C1210      N1215   1.359       .  A
C1210      C1591   1.475       .  S
N1211      C1212   1.359       .  A
C1212      N1213   1.355       .  A
C1212      C1252   1.464       .  S
N1213      C1214   1.355       .  A
C1214      N1215   1.360       .  A
C1216      N1217   1.362       .  A
C1216      N1221   1.362       .  A
C1216      C1572   1.476       .  S
N1217      C1218   1.359       .  A
C1218      N1219   1.357       .  A
C1218      C1266   1.467       .  S
N1219      C1220   1.356       .  A
C1220      N1221   1.359       .  A
N1222      N1223   1.319       .  A
N1222      N1228   1.316       .  A
N1222     Mn1251   2.188       .  S
N1223      C1230   1.350       .  A
N1224      N1226   1.316       .  A
N1224      N1225   1.319       .  A
N1224     Mn1240   2.199       .  S
N1225      C1231   1.351       .  A
N1226      N1227   1.322       .  A
N1226     Mn1251   2.203       .  S
N1227      C1231   1.352       .  A
N1228      N1229   1.322       .  A
N1228     Mn1240   2.216       .  S
N1229      C1230   1.354       .  A
N1232      N1238   1.318       .  A
N1232      N1233   1.320       .  A
N1232     Mn1262   2.195       .  S
N1233      C1241   1.351       .  A
N1234      N1235   1.317       .  A
N1234      N1236   1.315       .  A
N1234     Mn1240   2.187       .  S
N1235      C1242   1.348       .  A
N1236      N1237   1.322       .  A
N1236     Mn1262   2.205       .  S
N1237      C1242   1.353       .  A
N1238      N1239   1.321       .  A
N1238     Mn1240   2.221       .  S
N1239      C1241   1.354       .  A
Mn1240    Cl1264   2.526       .  S
N1243      N1244   1.319       .  A
N1243      N1249   1.317       .  A
N1243     Mn1251   2.187       .  S
N1244      C1252   1.350       .  A
N1245      N1247   1.315       .  A
N1245      N1246   1.318       .  A
N1245     Mn1263   2.190       .  S
N1246      C1253   1.349       .  A
N1247      N1248   1.323       .  A
N1247     Mn1251   2.206       .  S
N1248      C1253   1.354       .  A
N1249      N1250   1.321       .  A
N1249     Mn1263   2.219       .  S
N1250      C1252   1.355       .  A
Mn1251    Cl1264   2.567       .  S
N1254      N1255   1.320       .  A
N1254      N1260   1.316       .  A
N1254     Mn1262   2.194       .  S
N1255      C1265   1.351       .  A
N1256      N1257   1.318       .  A
N1256      N1258   1.316       .  A
N1256     Mn1263   2.196       .  S
N1257      C1266   1.350       .  A
N1258      N1259   1.324       .  A
N1258     Mn1262   2.214       .  S
N1259      C1266   1.355       .  A
N1260      N1261   1.321       .  A
N1260     Mn1263   2.215       .  S
N1261      C1265   1.354       .  A
Mn1262    Cl1264   2.569       .  S
Mn1263    Cl1264   2.525       .  S
C1267      C1652   1.484       .  S
C1267      C1268   1.417       .  A
C1267      C1272   1.411       .  A
C1268      C1604   1.481       .  S
C1268      C1269   1.403       .  A
C1269      C1270   1.401       .  A
C1269      H1838   1.085       .  S
C1270      C1540   1.478       .  S
C1270      C1271   1.413       .  A
C1271      C1559   1.484       .  S
C1271      C1272   1.407       .  A
C1272      H1273   1.084       .  S
H1274      C1833   1.084   1_545  S
C1275      C1623   1.482       .  S
C1275      C1276   1.413       .  A
C1275      C1280   1.402       .  A
C1277      H1282   1.085   1_455  S
C1278      C1279   1.416       .  A
C1279      C1511   1.479       .  S
C1279      C1280   1.405   1_556  A
C1280      H1281   1.084       .  S
C1283      C1687   1.487       .  S
C1283      C1284   1.415       .  A
C1283      C1288   1.401       .  A
C1284      C1588   1.477       .  S
C1284      C1285   1.407       .  A
C1285      C1286   1.406       .  A
C1285      H1290   1.084       .  S
C1286      C1476   1.489       .  S
C1286      C1287   1.416       .  A
C1287      C1492   1.478       .  S
C1287      C1288   1.407       .  A
C1291      C1671   1.471       .  S
C1291      C1292   1.412       .  A
C1291      C1296   1.407       .  A
C1292      C1575   1.482       .  S
C1292      C1293   1.402       .  A
C1293      C1294   1.404       .  A
C1293      H1862   1.084       .  S
C1294      C1444   1.473   1_554  S
C1294      C1295   1.414       .  A
C1295      C1463   1.486   1_554  S
C1295      C1296   1.403       .  A
C1296      H1297   1.084       .  S
H1298      C1857   1.085   1_545  S
C1299      N1300   1.363       .  A
C1299      N1304   1.364       .  A
C1299      C1460   1.485       .  S
N1300      C1301   1.361       .  A
C1301      N1302   1.356       .  A
C1301      C1355   1.474       .  S
N1302      C1303   1.357       .  A
C1303      N1304   1.363       .  A
C1303      C1400   1.474       .  S
C1305      N1306   1.361       .  A
C1305      N1310   1.362       .  A
C1305      C1527   1.476       .  S
N1306      C1307   1.357       .  A
C1307      N1308   1.359       .  A
C1307      C1423   1.469       .  S
N1308      C1309   1.360       .  A
C1309      N1310   1.359       .  A
C1309      C1354   1.472       .  S
C1311      N1312   1.355       .  A
C1311      N1316   1.360       .  A
C1311      C1447   1.468       .  S
N1312      C1313   1.353       .  A
C1313      N1314   1.356       .  A
C1313      C1379   1.461       .  S
N1314      C1315   1.358       .  A
C1315      N1316   1.360       .  A
C1315      C1422   1.466       .  S
C1317      N1318   1.362       .  A
C1317      N1322   1.363       .  A
C1317      C1508   1.479       .  S
N1318      C1319   1.360       .  A
C1319      N1320   1.355       .  A
C1319      C1378   1.466       .  S
N1320      C1321   1.355       .  A
C1321      N1322   1.360       .  A
C1321      C1401   1.467       .  S
C1323      N1324   1.365       .  A
C1323      N1328   1.360       .  A
C1323      C1479   1.482       .  S
N1324      C1325   1.362       .  A
C1325      N1326   1.358       .  A
C1325      C1365   1.473       .  S
N1326      C1327   1.357       .  A
C1327      N1328   1.357       .  A
C1327      C1436   1.468       .  S
C1329      N1330   1.357       .  A
C1329      N1334   1.361       .  A
C1329      C1543   1.478       .  S
N1330      C1331   1.356       .  A
C1331      N1332   1.356       .  A
C1331      C1344   1.464       .  S
N1332      C1333   1.358       .  A
C1333      N1334   1.363       .  A
C1333      C1435   1.467       .  S
N1335      N1336   1.322       .  A
N1335      N1341   1.316       .  A
N1335     Mn1364   2.203       .  S
N1336      C1343   1.352       .  A
N1337      N1339   1.318       .  A
N1337      N1338   1.322       .  A
N1337     Mn1353   2.217       .  S
N1338      C1344   1.354       .  A
N1339      N1340   1.318       .  A
N1339     Mn1364   2.195       .  S
N1340      C1344   1.350       .  A
N1341      N1342   1.319       .  A
N1341     Mn1353   2.196       .  S
N1342      C1343   1.351       .  A
C1343      C1384   1.464       .  S
N1345      N1351   1.315       .  A
N1345      N1346   1.325       .  A
N1345     Mn1375   2.218       .  S
N1346      C1354   1.356       .  A
N1347      N1348   1.321       .  A
N1347      N1349   1.318       .  A
N1347     Mn1353   2.226       .  S
N1348      C1355   1.355       .  A
N1349      N1350   1.323       .  A
N1349     Mn1375   2.205       .  S
N1350      C1355   1.353       .  A
N1351      N1352   1.319       .  A
N1351     Mn1353   2.195       .  S
N1352      C1354   1.350       .  A
Mn1353    Cl1377   2.526       .  S
N1356      N1357   1.327       .  A
N1356      N1362   1.315       .  A
N1356     Mn1364   2.221       .  S
N1357      C1365   1.357       .  A
N1358      N1360   1.317       .  A
N1358      N1359   1.321       .  A
N1358     Mn1376   2.220       .  S
N1359      C1366   1.355       .  A
N1360      N1361   1.321       .  A
N1360     Mn1364   2.194       .  S
N1361      C1366   1.351       .  A
N1362      N1363   1.318       .  A
N1362     Mn1376   2.192       .  S
N1363      C1365   1.348       .  A
Mn1364    Cl1377   2.573       .  S
C1366      C1388   1.468       .  S
N1367      N1368   1.323       .  A
N1367      N1373   1.316       .  A
N1367     Mn1375   2.207       .  S
N1368      C1378   1.353       .  A
N1369      N1370   1.320       .  A
N1369      N1371   1.318       .  A
N1369     Mn1376   2.204       .  S
N1370      C1379   1.351       .  A
N1371      N1372   1.319       .  A
N1371     Mn1375   2.200       .  S
N1372      C1379   1.352       .  A
N1373      N1374   1.319       .  A
N1373     Mn1376   2.195       .  S
N1374      C1378   1.350       .  A
Mn1375    Cl1377   2.573       .  S
Mn1376    Cl1377   2.523       .  S
C1380      N1381   1.360       .  A
C1380      N1385   1.361       .  A
C1380      C1495   1.474       .  S
N1381      C1382   1.357       .  A
C1382      N1383   1.356       .  A
C1382      C1412   1.462       .  S
N1383      C1384   1.355       .  A
C1384      N1385   1.358       .  A
C1386      N1387   1.362       .  A
C1386      N1391   1.358       .  A
C1386      C1556   1.480       .  S
N1387      C1388   1.364       .  A
C1388      N1389   1.358       .  A
N1389      C1390   1.355       .  A
C1390      N1391   1.357       .  A
C1390      C1411   1.466       .  S
N1392      N1393   1.323       .  A
N1392      N1398   1.318       .  A
N1393      C1400   1.352       .  A
N1394      N1396   1.316       .  A
N1394      N1395   1.319       .  A
N1394     Mn1410   2.193       .  S
N1395      C1401   1.350       .  A
N1396      N1397   1.324       .  A
N1396     Mn1421   2.213       .  S
N1397      C1401   1.354       .  A
N1398      N1399   1.322       .  A
N1399      C1400   1.356       .  A
N1402      N1408   1.318       .  A
N1402      N1403   1.318       .  A
N1402     Mn1432   2.190       .  S
N1403      C1411   1.349       .  A
N1404      N1405   1.317       .  A
N1404      N1406   1.316       .  A
N1405      C1412   1.348       .  A
N1406      N1407   1.323       .  A
N1407      C1412   1.354       .  A
N1408      N1409   1.323       .  A
N1408     Mn1410   2.226       .  S
N1409      C1411   1.355       .  A
Mn1410    Cl1434   2.528       .  S
N1413      N1414   1.321       .  A
N1413      N1419   1.317       .  A
N1413     Mn1985   2.198   1_545  S
N1414      C1422   1.352       .  A
N1415      N1417   1.316       .  A
N1415      N1416   1.319       .  A
N1416      C1423   1.349       .  A
N1417      N1418   1.324       .  A
N1418      C1423   1.356       .  A
N1419      N1420   1.320       .  A
N1419     Mn1433   2.214       .  S
N1420      C1422   1.353       .  A
Mn1421     N1977   2.205       .  S
Mn1421    Cl1434   2.573       .  S
N1424      N1425   1.320       .  A
N1424      N1430   1.316       .  A
N1425      C1435   1.351       .  A
N1426      N1427   1.320       .  A
N1426      N1428   1.315       .  A
N1426     Mn1433   2.198       .  S
N1427      C1436   1.351       .  A
N1428      N1429   1.323       .  A
N1428     Mn1996   2.207   1_545  S
N1429      C1436   1.354       .  A
N1430      N1431   1.321       .  A
N1431      C1435   1.355       .  A
Mn1432     N1992   2.218       .  S
Mn1432    Cl1434   2.573       .  S
Mn1433    Cl1998   2.524   1_545  S
Cl1434    Mn1997   2.526       .  S
C1437      C2006   1.387       .  A
C1437      C1438   1.401       .  A
C1437      S1443   1.707       .  A
C1438      C2003   1.402       .  A
C1438      H1449   1.083       .  S
C1439      C2002   1.403       .  A
C1439      C1448   1.371       .  A
C1439      C1440   1.387       .  A
C1440      C1441   1.398       .  A
C1440      S1446   1.701       .  A
C1441      C1442   1.398       .  A
C1441      H1450   1.083       .  S
C1442      C2001   1.388       .  A
C1442      C1445   1.365       .  A
S1443      C1444   1.720       .  A
C1444      C2009   1.385       .  A
C1445      C2008   1.382   1_545  A
C1445      H1451   1.083       .  S
S1446      C1447   1.723       .  A
C1447      C1448   1.386       .  A
C1448      H1452   1.083       .  S
C1453      C1458   1.386       .  A
C1453      C1454   1.404       .  A
C1453      S1459   1.709       .  A
C1454      C1455   1.404       .  A
C1454      H1465   1.083       .  S
C1455      C1464   1.372       .  A
C1455      C1456   1.386       .  A
C1456      C1457   1.407       .  A
C1456      S1462   1.715       .  A
C1457      C1458   1.408       .  A
C1457      H1466   1.083       .  S
C1458      C1461   1.378       .  A
S1459      C1460   1.726       .  A
C1460      C1461   1.392       .  A
C1461      H1467   1.083       .  S
S1462      C1463   1.724       .  A
C1463      C1464   1.388       .  A
C1464      H1468   1.083       .  S
C1469      C1474   1.387       .  A
C1469      C1470   1.404       .  A
C1469      S1475   1.709       .  A
C1470      C1471   1.404       .  A
C1470      H1481   1.083       .  S
C1471      C1480   1.375       .  A
C1471      C1472   1.386       .  A
C1472      C1473   1.407       .  A
C1472      S1478   1.712       .  A
C1473      C1474   1.407       .  A
C1473      H1482   1.083       .  S
C1474      C1477   1.379       .  A
S1475      C1476   1.725       .  A
C1476      C1477   1.390       .  A
C1477      H1483   1.083       .  S
S1478      C1479   1.728       .  A
C1479      C1480   1.389       .  A
C1480      H1484   1.083       .  S
C1485      C1490   1.387       .  A
C1485      C1486   1.399       .  A
C1485      S1491   1.704       .  A
C1486      C1487   1.400       .  A
C1486      H1497   1.083       .  S
C1487      C1496   1.369       .  A
C1487      C1488   1.386       .  A
C1488      C1489   1.404       .  A
C1488      S1494   1.709       .  A
C1489      C1490   1.404       .  A
C1492      C1493   1.388       .  A
C1493      H1499   1.083       .  S
S1494      C1495   1.725       .  A
C1495      C1496   1.386       .  A
C1496      H1500   1.083       .  S
C1501      C1506   1.386       .  A
C1501      C1502   1.405       .  A
C1501      S1507   1.711       .  A
C1502      C1503   1.405       .  A
C1502      H1513   1.083       .  S
C1503      C1512   1.374       .  A
C1503      C1504   1.387       .  A
C1504      C1505   1.402       .  A
C1504      S1510   1.707       .  A
C1505      C1506   1.403       .  A
C1505      H1514   1.083       .  S
C1506      C1509   1.372       .  A
S1507      C1508   1.726       .  A
C1508      C1509   1.388       .  A
C1509      H1515   1.083       .  S
S1510      C1511   1.722       .  A
C1511      C1512   1.387       .  A
C1512      H1516   1.083       .  S
C1517      C1522   1.387   1_455  A
C1517      C1518   1.402       .  A
C1517      S1523   1.709       .  A
C1518      C1519   1.404   1_455  A
C1518      H1529   1.083       .  S
C1519      C1528   1.371       .  A
C1519      C1520   1.386       .  A
C1520      C1521   1.402       .  A
C1520      S1526   1.709       .  A
C1521      C1522   1.403       .  A
C1521      H1530   1.083       .  S
C1522      C1525   1.370       .  A
S1523      C1524   1.721       .  A
C1524      C1525   1.385   1_455  A
S1526      C1527   1.724       .  A
C1527      C1528   1.389       .  A
C1528      H1532   1.083       .  S
C1533      C1538   1.388   1_565  A
C1533      C1534   1.405       .  A
C1533      S2103   1.710       .  A
C1534      C1535   1.405   1_565  A
C1534      H2109   1.083       .  S
C1535      C1544   1.376       .  A
C1535      C1536   1.387       .  A
C1536      C1537   1.401       .  A
C1536      S1542   1.703       .  A
C1537      C1538   1.401       .  A
C1537      H1546   1.083       .  S
C1538      C1541   1.371       .  A
S1539      C2097   1.712       .  A
S1539      C1540   1.723       .  A
C1540      C2105   1.384       .  A
C1541      C2104   1.383   1_545  A
C1541      H1547   1.083       .  S
S1542      C1543   1.724       .  A
C1543      C1544   1.389       .  A
C1544      H1548   1.083       .  S
H1545      C2098   1.083       .  S
C1549      C1554   1.387       .  A
C1549      C1550   1.404       .  A
C1549      S1555   1.707       .  A
C1550      C1551   1.404       .  A
C1550      H1561   1.083       .  S
C1551      C1560   1.376       .  A
C1551      C1552   1.387       .  A
C1552      C1553   1.405       .  A
C1552      S1558   1.708       .  A
C1553      C1554   1.405       .  A
C1553      H1562   1.083       .  S
C1554      C1557   1.377       .  A
S1555      C1556   1.726       .  A
C1556      C1557   1.389       .  A
C1557      H1563   1.083       .  S
S1558      C1559   1.726       .  A
C1559      C1560   1.387       .  A
C1560      H1564   1.083       .  S
C1565      C1570   1.386       .  A
C1565      C1566   1.403       .  A
C1565      S1571   1.711       .  A
C1566      C1567   1.404       .  A
C1566      H2141   1.083       .  S
C1567      C2140   1.372       .  A
C1567      C1568   1.387       .  A
C1568      C1569   1.403   1_545  A
C1568      S1574   1.711   1_545  A
C1569      C1570   1.404   1_565  A
C1569      H1578   1.083       .  S
C1570      C1573   1.372       .  A
S1571      C1572   1.724       .  A
C1572      C1573   1.388       .  A
C1573      H1579   1.083       .  S
S1574      C2139   1.723       .  A
C1575      C1576   1.385       .  A
C1575      S2138   1.725       .  A
C1576      C2131   1.372       .  A
C1576      H1580   1.083       .  S
H1577      C2130   1.083       .  S
C1581      C1586   1.387       .  A
C1581      C1582   1.404       .  A
C1581      S1587   1.713       .  A
C1582      C1583   1.406       .  A
C1582      H1593   1.083       .  S
C1583      C1592   1.373       .  A
C1583      C1584   1.387       .  A
C1584      C1585   1.399       .  A
C1584      S1590   1.705       .  A
C1585      C1586   1.400       .  A
C1585      H1594   1.083       .  S
C1586      C1589   1.366       .  A
S1587      C1588   1.723       .  A
C1588      C1589   1.384       .  A
C1589      H1595   1.083       .  S
S1590      C1591   1.722       .  A
C1591      C1592   1.389       .  A
C1592      H1596   1.083       .  S
C1597      C1602   1.388       .  A
C1597      C1598   1.401       .  A
C1597      S1603   1.707   1_545  A
C1598      C1599   1.402       .  A
C1598      H1609   1.083   1_545  S
C1599      C1608   1.370       .  A
C1599      C1600   1.386       .  A
C1600      C1601   1.404       .  A
C1600      S1606   1.709       .  A
C1601      C1602   1.405       .  A
C1601      H1610   1.083       .  S
C1602      C2169   1.373       .  A
S1603      C2168   1.720       .  A
C1604      C1605   1.388       .  A
C1604      S2167   1.722       .  A
C1605      C2166   1.375       .  A
C1605      H1611   1.083       .  S
S1606      C1607   1.726       .  A
C1607      C1608   1.387       .  A
C1608      H1612   1.083       .  S
C1613      C1618   1.386       .  A
C1613      C1614   1.403       .  A
C1613      S1619   1.710       .  A
C1614      C1615   1.404       .  A
C1614      H1625   1.083       .  S
C1615      C1624   1.372       .  A
C1615      C1616   1.387       .  A
C1616      C1617   1.405       .  A
C1616      S1622   1.712       .  A
C1617      C1618   1.406       .  A
C1617      H1626   1.083       .  S
C1618      C1621   1.375       .  A
S1619      C1620   1.724       .  A
C1620      C1621   1.390       .  A
C1621      H1627   1.083       .  S
S1622      C1623   1.723       .  A
C1623      C1624   1.387       .  A
C1624      H1628   1.083       .  S
C1629      C1634   1.387       .  A
C1629      C1630   1.401       .  A
C1630      C1631   1.402       .  A
C1631      C1640   1.370       .  A
C1631      C1632   1.386       .  A
C1632      C1633   1.403       .  A
C1632      S1638   1.710       .  A
C1633      C1634   1.404       .  A
C1633      H1642   1.083       .  S
C1634      C1637   1.371       .  A
C1636      C1637   1.385   1_455  A
C1637      H1643   1.083       .  S
S1638      C1639   1.726       .  A
C1639      C1640   1.387       .  A
C1640      H1644   1.083       .  S
C1645      C1650   1.387       .  A
C1645      C1646   1.401       .  A
C1645      S1651   1.706       .  A
C1646      C1647   1.402       .  A
C1646      H1657   1.083       .  S
C1647      C1656   1.370       .  A
C1647      C1648   1.386       .  A
C1648      C1649   1.406       .  A
C1648      S1654   1.714       .  A
C1649      C1650   1.407       .  A
C1649      H1658   1.083       .  S
C1650      C1653   1.376       .  A
S1651      C1652   1.724       .  A
C1652      C1653   1.389       .  A
C1653      H1659   1.083       .  S
S1654      C1655   1.726       .  A
C1655      C1656   1.388       .  A
C1656      H1660   1.083       .  S
C1661      C1666   1.387       .  A
C1661      C1662   1.399       .  A
C1661      S1667   1.705       .  A
C1662      C1663   1.400       .  A
C1662      H1673   1.083       .  S
C1663      C1672   1.368       .  A
C1663      C1664   1.388       .  A
C1664      C1665   1.403       .  A
C1664      S1670   1.709       .  A
C1665      C1666   1.404       .  A
C1665      H1674   1.083       .  S
C1666      C1669   1.370       .  A
S1667      C1668   1.721       .  A
C1668      C1669   1.388       .  A
C1669      H1675   1.083       .  S
S1670      C1671   1.721       .  A
C1671      C1672   1.382       .  A
C1672      H1676   1.083       .  S
C1677      C1682   1.387       .  A
C1677      C1678   1.402       .  A
C1677      S1683   1.706       .  A
C1678      C1679   1.403       .  A
C1678      H1689   1.083       .  S
C1679      C1688   1.372       .  A
C1680      C1681   1.407       .  A
C1680      S1686   1.714       .  A
C1681      H1690   1.083       .  S
C1682      C1685   1.377       .  A
S1683      C1684   1.724       .  A
C1684      C1685   1.390       .  A
C1685      H1691   1.083       .  S
S1686      C1687   1.725       .  A
C1688      H1692   1.083       .  S
C1693      N1694   1.362       .  A
C1693      N1698   1.358       .  A
C1693      C2248   1.479       .  S
N1694      C1695   1.364       .  A
C1695      N1696   1.358       .  A
C1695      C1737   1.468       .  S
N1696      C1697   1.355       .  A
C1697      N1698   1.356       .  A
C1697      C1794   1.466       .  S
C1699      N1700   1.359       .  A
C1699      N1704   1.360       .  A
C1699      C2232   1.472       .  S
N1700      C1701   1.357       .  A
C1701      N1702   1.357       .  A
C1701      C1806   1.463       .  S
N1702      C1703   1.357       .  A
C1703      N1704   1.358       .  A
C1703      C1725   1.465       .  S
C1705      N1706   1.364       .  A
C1705      N1710   1.361       .  A
C1705      C2219   1.479       .  S
N1706      C1707   1.361       .  A
C1707      N1708   1.355       .  A
C1707      C1795   1.465       .  S
N1708      C1709   1.354       .  A
C1709      N1710   1.357       .  A
C1709      C1760   1.461       .  S
C1711      N1712   1.360       .  A
C1711      N1716   1.359       .  A
C1711      C2203   1.473       .  S
N1712      C1713   1.358       .  A
C1713      N1714   1.357       .  A
C1713      C1726   1.468       .  S
N1714      C1715   1.358       .  A
C1715      N1716   1.358       .  A
C1715      C1829   1.466       .  S
N1717      N1718   1.322       .  A
N1717     Mn1746   2.208       .  S
N1719      N1720   1.321       .  A
N1720      C1726   1.352       .  A
N1721      N1722   1.320       .  A
N1723      N1724   1.319       .  A
N1723     Mn1735   2.192       .  S
N1724      C1725   1.349       .  A
N1727      N1728   1.323       .  A
N1729      N1730   1.320       .  A
N1729     Mn1735   2.218       .  S
N1730      C1737   1.354       .  A
N1731      N1732   1.321       .  A
N1731     Mn1757   2.196       .  S
N1733      N1734   1.318       .  A
N1734      C1736   1.349       .  A
C1736      C1770   1.469       .  S
N1738      N1739   1.324       .  A
N1738      N1744   1.316       .  A
N1739      C1747   1.355       .  A
N1740      N1742   1.316       .  A
N1740      N1741   1.320       .  A
N1740     Mn1758   2.216       .  S
N1741      C1748   1.354       .  A
N1742      N1743   1.319       .  A
N1742     Mn1746   2.187       .  S
N1743      C1748   1.350       .  A
N1744      N1745   1.318       .  A
N1745      C1747   1.349       .  A
Mn1746    Cl1759   2.569       .  S
C1747      C1784   1.468       .  S
C1748      C1764   1.464       .  S
N1749      N1750   1.323       .  A
N1749      N1755   1.316       .  A
N1749     Mn1757   2.204       .  S
N1750      C1760   1.353       .  A
N1751      N1752   1.322       .  A
N1751      N1753   1.317       .  A
N1752      C1761   1.355       .  A
N1753      N1754   1.319       .  A
N1754      C1761   1.350       .  A
N1755      N1756   1.317       .  A
N1755     Mn1758   2.189       .  S
N1756      C1760   1.348       .  A
Mn1757    Cl1759   2.570       .  S
Mn1758    Cl1759   2.522       .  S
C1761      C1778   1.467       .  S
C1762      N1763   1.360       .  A
C1762      N1767   1.358       .  A
C1762      C2184   1.472       .  S
N1763      C1764   1.360       .  A
C1764      N1765   1.355       .  A
N1765      C1766   1.355       .  A
C1766      N1767   1.357       .  A
C1766      C1805   1.461       .  S
C1768      N1769   1.363       .  A
C1768      N1773   1.359       .  A
C1768      C2171   1.478       .  S
N1769      C1770   1.360       .  A
C1770      N1771   1.358       .  A
N1771      C1772   1.357       .  A
C1772      N1773   1.357       .  A
C1772      C1817   1.464       .  S
C1774      N1775   1.356       .  A
C1774      N1779   1.359       .  A
C1774      C2155   1.472       .  S
N1775      C1776   1.355       .  A
C1776      N1777   1.358       .  A
C1776      C1816   1.464       .  S
N1777      C1778   1.358       .  A
C1778      N1779   1.361       .  A
C1780      N1781   1.363       .  A
C1780      N1785   1.362       .  A
C1780      C2136   1.479       .  S
N1781      C1782   1.360       .  A
C1782      N1783   1.358       .  A
C1782      C1830   1.473       .  S
N1783      C1784   1.358       .  A
C1784      N1785   1.360       .  A
N1786      N1787   1.318       .  A
N1786      N1792   1.316       .  A
N1786     Mn1815   2.192       .  S
N1787      C1794   1.350       .  A
N1788      N1790   1.316       .  A
N1788      N1789   1.318       .  A
N1788     Mn1804   2.197       .  S
N1789      C1795   1.350       .  A
N1790      N1791   1.324       .  A
N1790     Mn1815   2.208       .  S
N1791      C1795   1.354       .  A
N1792      N1793   1.322       .  A
N1792     Mn1804   2.214       .  S
N1793      C1794   1.355       .  A
N1796      N1802   1.318       .  A
N1796      N1797   1.320       .  A
N1796     Mn1826   2.198       .  S
N1797      C1805   1.351       .  A
N1798      N1799   1.318       .  A
N1798      N1800   1.316       .  A
N1798     Mn1804   2.191       .  S
N1799      C1806   1.349       .  A
N1800      N1801   1.323       .  A
N1800     Mn1826   2.212       .  S
N1801      C1806   1.354       .  A
N1802      N1803   1.319       .  A
N1802     Mn1804   2.208       .  S
N1803      C1805   1.351       .  A
Mn1804    Cl1828   2.525       .  S
N1807      N1808   1.319       .  A
N1807      N1813   1.317       .  A
N1807     Mn1815   2.198       .  S
N1808      C1816   1.352       .  A
N1809      N1811   1.315       .  A
N1809      N1810   1.319       .  A
N1809     Mn1827   2.196       .  S
N1810      C1817   1.350       .  A
N1811      N1812   1.322       .  A
N1811     Mn1815   2.205       .  S
N1812      C1817   1.353       .  A
N1813      N1814   1.320       .  A
N1813     Mn1827   2.205       .  S
N1814      C1816   1.352       .  A
Mn1815    Cl1828   2.569       .  S
N1818      N1819   1.321       .  A
N1818      N1824   1.316       .  A
N1818     Mn1826   2.198       .  S
N1819      C1829   1.353       .  A
N1820      N1821   1.320       .  A
N1820      N1822   1.316       .  A
N1820     Mn1827   2.199       .  S
N1821      C1830   1.350       .  A
N1822      N1823   1.326       .  A
N1822     Mn1826   2.223       .  S
N1823      C1830   1.357       .  A
N1824      N1825   1.320       .  A
N1824     Mn1827   2.206       .  S
N1825      C1829   1.352       .  A
Mn1826    Cl1828   2.570       .  S
Mn1827    Cl1828   2.526       .  S
C1831      C2216   1.479       .  S
C1831      C1832   1.412       .  A
C1831      C1836   1.405       .  A
C1832      C2168   1.475       .  S
C1832      C1833   1.405       .  A
C1833      C1834   1.403       .  A
C1834      C2104   1.475       .  S
C1834      C1835   1.411       .  A
C1835      C2123   1.478       .  S
C1835      C1836   1.404       .  A
C1836      H1837   1.084       .  S
C1839      C2187   1.478       .  S
C1839      C1840   1.413       .  A
C1839      C1844   1.405       .  A
C1841      H1846   1.084   1_455  S
C1842      C1843   1.415       .  A
C1843      C2075   1.482   1_554  S
C1843      C1844   1.405       .  A
C1844      H1845   1.084       .  S
C1847      C2251   1.487       .  S
C1847      C1848   1.416       .  A
C1847      C1852   1.402       .  A
C1848      C2152   1.476       .  S
C1848      C1849   1.406       .  A
C1849      C1850   1.405       .  A
C1849      H1854   1.084       .  S
C1850      C2040   1.491       .  S
C1850      C1851   1.416       .  A
C1851      C2056   1.475       .  S
C1851      C1852   1.406       .  A
C1855      C2235   1.473       .  S
C1855      C1856   1.412       .  A
C1855      C1860   1.406       .  A
C1856      C2139   1.480       .  S
C1856      C1857   1.402       .  A
C1857      C1858   1.402       .  A
C1858      C2008   1.470   1_554  S
C1858      C1859   1.415       .  A
C1859      C2027   1.487   1_554  S
C1859      C1860   1.403       .  A
C1860      H1861   1.084       .  S
C1863      N1864   1.360       .  A
C1863      N1868   1.365       .  A
C1863      C2024   1.482       .  S
N1864      C1865   1.357       .  A
C1865      N1866   1.357       .  A
C1865      C1919   1.470       .  S
N1866      C1867   1.358       .  A
C1867      N1868   1.366       .  A
C1867      C1964   1.475       .  S
C1869      N1870   1.361       .  A
C1869      N1874   1.362       .  A
C1869      C2091   1.478       .  S
N1870      C1871   1.358       .  A
C1871      N1872   1.357       .  A
C1871      C1987   1.468       .  S
N1872      C1873   1.358       .  A
C1873      N1874   1.360       .  A
C1873      C1918   1.468       .  S
C1875      N1876   1.355       .  A
C1875      N1880   1.360       .  A
C1875      C2011   1.468       .  S
N1876      C1877   1.354       .  A
C1877      N1878   1.355       .  A
C1877      C1943   1.461       .  S
N1878      C1879   1.358       .  A
C1879      N1880   1.360       .  A
C1879      C1986   1.464       .  S
C1881      N1882   1.361       .  A
C1881      N1886   1.362       .  A
C1881      C2072   1.476       .  S
N1882      C1883   1.359       .  A
C1883      N1884   1.355       .  A
C1883      C1942   1.463       .  S
N1884      C1885   1.355       .  A
C1885      N1886   1.359       .  A
C1885      C1965   1.463       .  S
C1887      N1888   1.363       .  A
C1887      N1892   1.364       .  A
C1887      C2043   1.481       .  S
N1888      C1889   1.359       .  A
C1889      N1890   1.357       .  A
C1889      C1929   1.471       .  S
N1890      C1891   1.358       .  A
C1891      N1892   1.362       .  A
C1891      C2000   1.474       .  S
C1893      N1894   1.358       .  A
C1893      N1898   1.359       .  A
C1893      C2107   1.473       .  S
N1894      C1895   1.357       .  A
C1895      N1896   1.357       .  A
C1895      C1908   1.464       .  S
N1896      C1897   1.357       .  A
C1897      N1898   1.360       .  A
C1897      C1999   1.465       .  S
N1899      N1900   1.322       .  A
N1899      N1905   1.315       .  A
N1899     Mn1928   2.206       .  S
N1900      C1907   1.353       .  A
N1901      N1903   1.317       .  A
N1901      N1902   1.321       .  A
N1901     Mn1917   2.212       .  S
N1902      C1908   1.353       .  A
N1903      N1904   1.319       .  A
N1903     Mn1928   2.195       .  S
N1904      C1908   1.351       .  A
N1905      N1906   1.317       .  A
N1905     Mn1917   2.185       .  S
N1906      C1907   1.348       .  A
C1907      C1948   1.460       .  S
N1909      N1915   1.314       .  A
N1909      N1910   1.325       .  A
N1909     Mn1939   2.214       .  S
N1910      C1918   1.356       .  A
N1911      N1912   1.321       .  A
N1911      N1913   1.317       .  A
N1911     Mn1917   2.215       .  S
N1912      C1919   1.353       .  A
N1913      N1914   1.321       .  A
N1913     Mn1939   2.202       .  S
N1914      C1919   1.353       .  A
N1915      N1916   1.318       .  A
N1915     Mn1917   2.190       .  S
N1916      C1918   1.349       .  A
Mn1917    Cl1941   2.523       .  S
N1920      N1921   1.325       .  A
N1920      N1926   1.315       .  A
N1920     Mn1928   2.215       .  S
N1921      C1929   1.356       .  A
N1922      N1924   1.317       .  A
N1922      N1923   1.320       .  A
N1922     Mn1940   2.215       .  S
N1923      C1930   1.354       .  A
N1924      N1925   1.321       .  A
N1924     Mn1928   2.195       .  S
N1925      C1930   1.351       .  A
N1926      N1927   1.319       .  A
N1926     Mn1940   2.196       .  S
N1927      C1929   1.350       .  A
Mn1928    Cl1941   2.570       .  S
C1930      C1952   1.465       .  S
N1931      N1932   1.323       .  A
N1931      N1937   1.316       .  A
N1931     Mn1939   2.206       .  S
N1932      C1942   1.353       .  A
N1933      N1934   1.321       .  A
N1933      N1935   1.318       .  A
N1933     Mn1940   2.210       .  S
N1934      C1943   1.353       .  A
N1935      N1936   1.317       .  A
N1935     Mn1939   2.192       .  S
N1936      C1943   1.350       .  A
N1937      N1938   1.318       .  A
N1937     Mn1940   2.194       .  S
N1938      C1942   1.349       .  A
Mn1939    Cl1941   2.570       .  S
Mn1940    Cl1941   2.523       .  S
C1944      N1945   1.360       .  A
C1944      N1949   1.360       .  A
C1944      C2059   1.473       .  S
N1945      C1946   1.358       .  A
C1946      N1947   1.355       .  A
C1946      C1976   1.462       .  S
N1947      C1948   1.356       .  A
C1948      N1949   1.357       .  A
C1950      N1951   1.361       .  A
C1950      N1955   1.361       .  A
C1950      C2120   1.481       .  S
N1951      C1952   1.361       .  A
C1952      N1953   1.356       .  A
N1953      C1954   1.354       .  A
C1954      N1955   1.361       .  A
C1954      C1975   1.467       .  S
N1956      N1957   1.322       .  A
N1956      N1962   1.318       .  A
N1957      C1964   1.352       .  A
N1958      N1960   1.315       .  A
N1958      N1959   1.318       .  A
N1958     Mn1974   2.188       .  S
N1959      C1965   1.349       .  A
N1960      N1961   1.323       .  A
N1960     Mn1985   2.209       .  S
N1961      C1965   1.354       .  A
N1962      N1963   1.322       .  A
N1963      C1964   1.356       .  A
N1966      N1972   1.317       .  A
N1966      N1967   1.318       .  A
N1966     Mn1996   2.182       .  S
N1967      C1975   1.348       .  A
N1968      N1969   1.319       .  A
N1968      N1970   1.315       .  A
N1969      C1976   1.351       .  A
N1970      N1971   1.321       .  A
N1971      C1976   1.352       .  A
N1972      N1973   1.323       .  A
N1972     Mn1974   2.230       .  S
N1973      C1975   1.357       .  A
Mn1974    Cl1998   2.523       .  S
N1977      N1978   1.322       .  A
N1977      N1983   1.318       .  A
N1978      C1986   1.353       .  A
N1979      N1981   1.316       .  A
N1979      N1980   1.320       .  A
N1980      C1987   1.350       .  A
N1981      N1982   1.324       .  A
N1982      C1987   1.354       .  A
N1983      N1984   1.318       .  A
N1983     Mn1997   2.206       .  S
N1984      C1986   1.351       .  A
Mn1985    Cl1998   2.570       .  S
N1988      N1989   1.319       .  A
N1988      N1994   1.317       .  A
N1989      C1999   1.351       .  A
N1990      N1991   1.319       .  A
N1990      N1992   1.316       .  A
N1990     Mn1997   2.202       .  S
N1991      C2000   1.350       .  A
N1992      N1993   1.326       .  A
N1993      C2000   1.356       .  A
N1994      N1995   1.321       .  A
N1995      C1999   1.354       .  A
Mn1996    Cl1998   2.569       .  S
C2001      C2002   1.402       .  A
C2001      S2007   1.708   1_545  A
C2002      H2013   1.083   1_545  S
C2003      C2012   1.370       .  A
C2003      C2004   1.387       .  A
C2004      C2005   1.399       .  A
C2004      S2010   1.703       .  A
C2005      C2006   1.400       .  A
C2005      H2014   1.083       .  S
C2006      C2009   1.366       .  A
S2007      C2008   1.721       .  A
C2009      H2015   1.083       .  S
S2010      C2011   1.723       .  A
C2011      C2012   1.385       .  A
C2012      H2016   1.083       .  S
C2017      C2022   1.387       .  A
C2017      C2018   1.402       .  A
C2017      S2023   1.705       .  A
C2018      C2019   1.402       .  A
C2018      H2029   1.083       .  S
C2019      C2028   1.373       .  A
C2019      C2020   1.386       .  A
C2020      C2021   1.408       .  A
C2020      S2026   1.713       .  A
C2021      C2022   1.408       .  A
C2021      H2030   1.083       .  S
C2022      C2025   1.380       .  A
S2023      C2024   1.725       .  A
C2024      C2025   1.391       .  A
C2025      H2031   1.083       .  S
S2026      C2027   1.726       .  A
C2027      C2028   1.387       .  A
C2028      H2032   1.083       .  S
C2033      C2038   1.386       .  A
C2033      C2034   1.404       .  A
C2033      S2039   1.709       .  A
C2034      C2035   1.404       .  A
C2034      H2045   1.083       .  S
C2035      C2044   1.373       .  A
C2035      C2036   1.386       .  A
C2036      C2037   1.406       .  A
C2036      S2042   1.714       .  A
C2037      C2038   1.407       .  A
C2037      H2046   1.083       .  S
C2038      C2041   1.377       .  A
S2039      C2040   1.726       .  A
C2040      C2041   1.391       .  A
C2041      H2047   1.083       .  S
S2042      C2043   1.726       .  A
C2043      C2044   1.389       .  A
C2044      H2048   1.083       .  S
C2049      C2054   1.387       .  A
C2049      C2050   1.399       .  A
C2049      S2055   1.704       .  A
C2050      C2051   1.401       .  A
C2050      H2061   1.083       .  S
C2051      C2060   1.368       .  A
C2051      C2052   1.387       .  A
C2052      C2053   1.404       .  A
C2052      S2058   1.710       .  A
C2053      C2054   1.404       .  A
C2056      C2057   1.387       .  A
C2057      H2063   1.083       .  S
S2058      C2059   1.724       .  A
C2059      C2060   1.386       .  A
C2060      H2064   1.083       .  S
C2065      C2070   1.386       .  A
C2065      C2066   1.405       .  A
C2065      S2071   1.712       .  A
C2066      C2067   1.406       .  A
C2066      H2077   1.083       .  S
C2067      C2076   1.375       .  A
C2067      C2068   1.387       .  A
C2068      C2069   1.401       .  A
C2068      S2074   1.706       .  A
C2069      C2070   1.402       .  A
C2069      H2078   1.083       .  S
C2070      C2073   1.371       .  A
S2071      C2072   1.725       .  A
C2072      C2073   1.387       .  A
C2073      H2079   1.083       .  S
S2074      C2075   1.723       .  A
C2075      C2076   1.388       .  A
C2076      H2080   1.083       .  S
C2081      C2086   1.387   1_455  A
C2081      C2082   1.403       .  A
C2081      S2087   1.709       .  A
C2082      C2083   1.404   1_455  A
C2082      H2093   1.083       .  S
C2083      C2092   1.372       .  A
C2083      C2084   1.386       .  A
C2084      C2085   1.403       .  A
C2084      S2090   1.710       .  A
C2085      C2086   1.404       .  A
C2085      H2094   1.083       .  S
C2086      C2089   1.373       .  A
S2087      C2088   1.723       .  A
C2088      C2089   1.386   1_455  A
S2090      C2091   1.724       .  A
C2091      C2092   1.389       .  A
C2092      H2096   1.083       .  S
C2097      C2102   1.387       .  A
C2097      C2098   1.405       .  A
C2098      C2099   1.406       .  A
C2099      C2108   1.373       .  A
C2099      C2100   1.387       .  A
C2100      C2101   1.399       .  A
C2100      S2106   1.705       .  A
C2101      C2102   1.400       .  A
C2101      H2110   1.083       .  S
C2102      C2105   1.367       .  A
S2103      C2104   1.723       .  A
C2105      H2111   1.083       .  S
S2106      C2107   1.722       .  A
C2107      C2108   1.389       .  A
C2108      H2112   1.083       .  S
C2113      C2118   1.386       .  A
C2113      C2114   1.403       .  A
C2113      S2119   1.710       .  A
C2114      C2115   1.404       .  A
C2114      H2125   1.083       .  S
C2115      C2124   1.372       .  A
C2115      C2116   1.387       .  A
C2116      C2117   1.405       .  A
C2116      S2122   1.712       .  A
C2117      C2118   1.406       .  A
C2117      H2126   1.083       .  S
C2118      C2121   1.375       .  A
S2119      C2120   1.725       .  A
C2120      C2121   1.390       .  A
C2121      H2127   1.083       .  S
S2122      C2123   1.722       .  A
C2123      C2124   1.385       .  A
C2124      H2128   1.083       .  S
C2129      C2134   1.386       .  A
C2129      C2130   1.402       .  A
C2129      S2135   1.708       .  A
C2130      C2131   1.402       .  A
C2131      C2132   1.387       .  A
C2132      C2133   1.407       .  A
C2132      S2138   1.713       .  A
C2133      C2134   1.407       .  A
C2133      H2142   1.083       .  S
C2134      C2137   1.376       .  A
S2135      C2136   1.722       .  A
C2136      C2137   1.392       .  A
C2137      H2143   1.083       .  S
C2139      C2140   1.386   1_565  A
C2140      H2144   1.083       .  S
C2145      C2150   1.387       .  A
C2145      C2146   1.405       .  A
C2145      S2151   1.712       .  A
C2146      C2147   1.406       .  A
C2146      H2157   1.083       .  S
C2147      C2156   1.374       .  A
C2147      C2148   1.387       .  A
C2148      C2149   1.397       .  A
C2148      S2154   1.702       .  A
C2149      C2150   1.398       .  A
C2149      H2158   1.083       .  S
C2150      C2153   1.365       .  A
S2151      C2152   1.724       .  A
C2152      C2153   1.382       .  A
C2153      H2159   1.083       .  S
S2154      C2155   1.721       .  A
C2155      C2156   1.389       .  A
C2156      H2160   1.083       .  S
C2161      C2166   1.387       .  A
C2161      C2162   1.402       .  A
C2161      S2167   1.708       .  A
C2162      C2163   1.402       .  A
C2162      H2173   1.083       .  S
C2163      C2172   1.373       .  A
C2163      C2164   1.386       .  A
C2164      C2165   1.405       .  A
C2164      S2170   1.709       .  A
C2165      C2166   1.405       .  A
C2165      H2174   1.083       .  S
C2168      C2169   1.386   1_565  A
C2169      H2175   1.083       .  S
S2170      C2171   1.727       .  A
C2171      C2172   1.387       .  A
C2172      H2176   1.083       .  S
C2177      C2182   1.387       .  A
C2177      C2178   1.401       .  A
C2177      S2183   1.708       .  A
C2178      C2179   1.402       .  A
C2178      H2189   1.083       .  S
C2179      C2188   1.368       .  A
C2179      C2180   1.387       .  A
C2180      C2181   1.402       .  A
C2180      S2186   1.710       .  A
C2181      C2182   1.404       .  A
C2181      H2190   1.083       .  S
C2182      C2185   1.370       .  A
S2183      C2184   1.722       .  A
C2184      C2185   1.387       .  A
C2185      H2191   1.083       .  S
S2186      C2187   1.722       .  A
C2187      C2188   1.386       .  A
C2188      H2192   1.083       .  S
C2193      C2198   1.387       .  A
C2193      C2194   1.401       .  A
C2194      C2195   1.402       .  A
C2195      C2204   1.369       .  A
C2195      C2196   1.387       .  A
C2196      C2197   1.402       .  A
C2196      S2202   1.708       .  A
C2197      C2198   1.403       .  A
C2197      H2206   1.083       .  S
C2198      C2201   1.369       .  A
C2200      C2201   1.385   1_455  A
C2201      H2207   1.083       .  S
S2202      C2203   1.724       .  A
C2203      C2204   1.387       .  A
C2204      H2208   1.083       .  S
C2209      C2214   1.387       .  A
C2209      C2210   1.403       .  A
C2209      S2215   1.709       .  A
C2210      C2211   1.404       .  A
C2210      H2221   1.083       .  S
C2211      C2220   1.374       .  A
C2211      C2212   1.386       .  A
C2212      C2213   1.404       .  A
C2212      S2218   1.708       .  A
C2213      C2214   1.404       .  A
C2213      H2222   1.083       .  S
C2214      C2217   1.374       .  A
S2215      C2216   1.721       .  A
C2216      C2217   1.387       .  A
C2217      H2223   1.083       .  S
S2218      C2219   1.727       .  A
C2219      C2220   1.388       .  A
C2220      H2224   1.083       .  S
C2225      C2230   1.387       .  A
C2225      C2226   1.402       .  A
C2225      S2231   1.708       .  A
C2226      C2227   1.403       .  A
C2226      H2237   1.083       .  S
C2227      C2236   1.370       .  A
C2227      C2228   1.388       .  A
C2228      C2229   1.401       .  A
C2228      S2234   1.708       .  A
C2229      C2230   1.402       .  A
C2229      H2238   1.083       .  S
C2230      C2233   1.370       .  A
S2231      C2232   1.723       .  A
C2232      C2233   1.387       .  A
C2233      H2239   1.083       .  S
S2234      C2235   1.721       .  A
C2235      C2236   1.384       .  A
C2236      H2240   1.083       .  S
C2241      C2246   1.387       .  A
C2241      C2242   1.401       .  A
C2241      S2247   1.704       .  A
C2242      C2243   1.401       .  A
C2242      H2253   1.083       .  S
C2243      C2252   1.372       .  A
C2244      C2245   1.407       .  A
C2244      S2250   1.712       .  A
C2245      H2254   1.083       .  S
C2246      C2249   1.379       .  A
S2247      C2248   1.724       .  A
C2248      C2249   1.391       .  A
C2249      H2255   1.083       .  S
S2250      C2251   1.725       .  A
C2252      H2256   1.083       .  S
