geometry optimzed in LAMMPS
_audit_creation_date              2020-11-30 
_audit_creation_method            'lammps2cif' 
_symmetry_space_group_name_H-M    'P1' 
_symmetry_Int_Tables_number       1 
_symmetry_cell_setting            triclinic 
loop_ 
_symmetry_equiv_pos_as_xyz 
  x,y,z 
_cell_length_a                    30.971641776602873 
_cell_length_b                    31.50943235661102 
_cell_length_c                    29.068225465468718 
_cell_angle_alpha                 89.53506672541555 
_cell_angle_beta                  91.36827394820887 
_cell_angle_gamma                 90.07418405604007 
loop_ 
_atom_site_label 
_atom_site_type_symbol 
_atom_site_fract_x 
_atom_site_fract_y 
_atom_site_fract_z 
_atom_site_charge 
C1          C  0.24660880  0.24177430  0.74605932    -0.02260
O2          O  0.13197462  0.06565717  0.50006172    -0.75070
O3          O  0.18615514  0.11489892  0.49697281    -0.53980
C4          C  0.14608960  0.10407773  0.49854480     0.78660
O5          O  0.25574506  0.41924333  0.62370603    -0.59670
O6          O  0.25698588  0.37079079  0.56572403    -0.52700
C7          C  0.25703724  0.38099019  0.60857568     0.70670
O8          O  0.25174260  0.06250870  0.62753431    -0.74230
O9          O  0.24978560  0.11337765  0.57107220    -0.54790
C10         C  0.25010047  0.10137127  0.61340270     0.76680
O11         O  0.13131936  0.42363339  0.48920296    -0.59370
O12         O  0.18522570  0.37407172  0.49336914    -0.52490
C13         C  0.14515414  0.38516213  0.49081729     0.73270
Zr14       Zr  0.16266252  0.49448387  0.49477502     2.54710
O15         O  0.10872196  0.48986652  0.55415214    -0.79940
O16         O  0.10908546  0.49830105  0.43216861    -0.93360
Zr17       Zr  0.25311462  0.49165089  0.59377902     2.64680
O18         O  0.19520522  0.98885810  0.64895782    -0.98310
O19         O  0.30843334  0.49063319  0.65464419    -0.80370
O20         O  0.20734605  0.03410439  0.54603986    -0.83730
O21         O  0.20731051  0.45174166  0.54379559    -2.18440
O22         O  0.25154218  0.42932576  0.36509680    -0.67120
O23         O  0.25579157  0.37760339  0.42071102    -0.51680
C24         C  0.25418868  0.39054999  0.37851052     0.71650
O25         O  0.37513888  0.06497616  0.49753533    -0.60030
O26         O  0.32170256  0.11439399  0.50379299    -0.52000
C27         C  0.36161689  0.10335157  0.50099723     0.73450
O28         O  0.37524007  0.42290125  0.50387593    -0.71420
O29         O  0.32120288  0.37392497  0.49627490    -0.50100
C30         C  0.36129805  0.38450511  0.50059596     0.74840
O31         O  0.25556616  0.06987562  0.36958677    -0.66750
O32         O  0.25596310  0.11632258  0.42886832    -0.53950
C33         C  0.25620731  0.10776583  0.38573454     0.73220
Zr34       Zr  0.25351622  0.49814039  0.40107903     2.77540
O35         O  0.31079453  0.99955343  0.34509761    -0.97500
O36         O  0.19578736  0.00172517  0.34287766    -0.78320
Zr37       Zr  0.34414003  0.49409798  0.50008834     2.70070
O38         O  0.39827394  0.49118675  0.44086024    -0.79570
O39         O  0.39736178  0.49805652  0.56283443    -0.98650
Zr40       Zr  0.25367608  0.07561355  0.49955132     2.21500
Zr41       Zr  0.25349206  0.41276643  0.49497739     2.11130
O42         O  0.29942163  0.45505251  0.44848981    -2.47340
O43         O  0.29988390  0.03715145  0.45100051    -0.79360
O44         O  0.20762338  0.45483857  0.44600635    -0.71560
O45         O  0.29959779  0.03400279  0.54891315    -2.32510
O46         O  0.20727113  0.03745963  0.44822714    -2.28720
O47         O  0.29909319  0.45170499  0.54650933    -0.73320
H48         H  0.18964578  0.43278343  0.56164539     0.78680
H49         H  0.31724365  0.05181071  0.56868826     0.79770
H50         H  0.31729501  0.43748277  0.42965019     0.81990
H51         H  0.18977738  0.05649226  0.42943297     0.79600
H52         H  0.33442529  0.00249737  0.64010038     0.42640
H53         H  0.38949532  0.47463415  0.58393649     0.41610
H54         H  0.38591933  0.00839337  0.41512319     0.41280
H55         H  0.32766232  0.47335270  0.35120378     0.39220
H56         H  0.17220268  0.48439560  0.35574623     0.42350
H57         H  0.11510063  0.02537476  0.41601453     0.37130
H58         H  0.12182284  0.00512051  0.58066816     0.43250
H59         H  0.17890966  0.46266548  0.64143492     0.39670
H60         H  0.29583738  0.49450596  0.31514974     0.44580
H61         H  0.08138867  0.50321331  0.44758494     0.43310
H62         H  0.20997190  0.48244085  0.67878925     0.43440
H63         H  0.42470929  0.48880197  0.54910850     0.43800
C64         C  0.48151145  0.24347313  0.49274799     0.00790
C65         C  0.02577333  0.24443466  0.49379635     0.00790
C66         C  0.26016896  0.24961593  0.25031908    -0.02260
C67         C  0.22955482  0.49799429  0.99333745     0.00790
C68         C  0.27378965  0.49955100  0.99734861     0.00790
O69         O  0.07211666  0.25129233  0.87082572    -0.75070
O70         O  0.12442770  0.25087596  0.92751228    -0.53980
C71         C  0.11178006  0.25126784  0.88511104     0.78660
O72         O  0.43090729  0.36731429  0.00337571    -0.59670
O73         O  0.37872502  0.31625148  0.99745294    -0.52700
C74         C  0.39120460  0.35519802  0.00023617     0.70670
O75         O  0.07618294  0.36632084  0.99891403    -0.74230
O76         O  0.12684661  0.31355905  0.00124372    -0.54790
C77         C  0.11542985  0.35289952  0.99975448     0.76680
O78         O  0.42749773  0.25002548  0.87050225    -0.59370
O79         O  0.37776005  0.24684519  0.92731184    -0.52490
C80         C  0.38861243  0.24786560  0.88476688     0.73270
Zr81       Zr  0.00017854  0.25203998  0.90308985     2.54710
O82         O  0.99899687  0.31266824  0.85066676    -0.79940
O83         O  0.49798166  0.20100935  0.84057357    -0.93360
Zr84       Zr  0.00337763  0.33709558  0.00201477     2.64680
O85         O  0.00215490  0.39306889  0.94372196    -0.98310
O86         O  0.50613021  0.38757787  0.06500786    -0.80370
O87         O  0.04394240  0.29493085  0.95156737    -0.83730
O88         O  0.45936447  0.29553970  0.95201499    -2.18440
O89         O  0.42712928  0.13185752  0.98970572    -0.67120
O90         O  0.37682670  0.18373151  0.99972159    -0.51680
C91         C  0.38794468  0.14487942  0.99324904     0.71650
O92         O  0.07787308  0.24007543  0.12888651    -0.60030
O93         O  0.12537175  0.24212139  0.07066804    -0.52000
C94         C  0.11640036  0.23996931  0.11353254     0.73450
O95         O  0.43637554  0.24744001  0.12997500    -0.71420
O96         O  0.38313836  0.25325781  0.07447623    -0.50100
C97         C  0.39685336  0.25144097  0.11677197     0.74840
O98         O  0.07283839  0.12907340  0.99881638    -0.66750
O99         O  0.12489839  0.18040241  0.99506764    -0.53950
C100        C  0.11243383  0.14140354  0.99722981     0.73220
Zr101      Zr  0.00060269  0.15965937  0.99606915     2.77540
O102        O  0.99810897  0.10395817  0.05453949    -0.97500
O103        O  0.00186092  0.10866015  0.93368982    -0.78320
Zr104      Zr  0.00579469  0.24455342  0.09496716     2.70070
O105        O  0.00404167  0.18506962  0.14885688    -0.79570
O106        O  0.01193056  0.29846038  0.15432276    -0.98650
Zr107      Zr  0.08568092  0.24738451  0.99845575     2.21500
Zr108      Zr  0.41837728  0.24948472  0.00006736     2.11130
O109        O  0.46068063  0.20196795  0.04698263    -2.47340
O110        O  0.04542601  0.20068970  0.04577056    -0.79360
O111        O  0.45834929  0.20618211  0.94939468    -0.71560
O112        O  0.04663628  0.29132644  0.04904993    -2.32510
O113        O  0.04232095  0.20433010  0.94845945    -2.28720
O114        O  0.46246327  0.29192842  0.04986780    -0.73320
H115        H  0.44063898  0.31358561  0.93340791     0.78680
H116        H  0.06604000  0.30774591  0.06840650     0.79770
H117        H  0.44242542  0.18425556  0.06560679     0.81990
H118        H  0.06001761  0.18720038  0.92897593     0.79600
H119        H  0.02764900  0.37570889  0.08729849     0.42640
H120        H  0.48794040  0.31841136  0.14732697     0.41610
H121        H  0.02050249  0.16236864  0.13377249     0.41280
H122        H  0.47096807  0.10895565  0.07096382     0.39220
H123        H  0.49217755  0.12505288  0.90614478     0.42350
H124        H  0.02289319  0.18197968  0.84679558     0.37130
H125        H  0.02099200  0.33234661  0.86360033     0.43250
H126        H  0.47666592  0.38669817  0.92374626     0.39670
H127        H  0.99270532  0.07759340  0.03700145     0.44580
H128        H  0.50606496  0.21760551  0.81300942     0.43310
H129        H  0.99406248  0.41898681  0.96050037     0.43440
H130        H  0.00349596  0.28375391  0.18297691     0.43800
C131        C  0.29799868  0.04075455  0.99442551     0.00070
C132        C  0.32678875  0.04566873  0.95818921    -0.11810
C133        C  0.35418876  0.08085714  0.95563106     0.02300
C134        C  0.35385027  0.11191186  0.99032372    -0.00020
C135        C  0.32376520  0.10827063  0.02552325    -0.11750
C136        C  0.29616209  0.07290727  0.02811919     0.02190
H137        H  0.32821052  0.02143682  0.93196183     0.15170
H138        H  0.32371120  0.13171535  0.05264364     0.15170
C139        C  0.26982685  0.06843152  0.06816114     0.36820
C140        C  0.38224033  0.08450931  0.91680286     0.36730
N141        N  0.24928987  0.06499482  0.10072763    -0.43520
N142        N  0.40447079  0.08750582  0.88550171    -0.43520
C143        C  0.14928469  0.38590028  0.99757622     0.00070
C144        C  0.15229027  0.40975399  0.95694887    -0.11810
C145        C  0.18019824  0.44457530  0.95430313     0.02300
C146        C  0.20509986  0.45694260  0.99329189    -0.00020
C147        C  0.20308295  0.43226603  0.03373611    -0.11750
C148        C  0.17546660  0.39684758  0.03603554     0.02190
H149        H  0.13238416  0.40127876  0.92718736     0.15170
H150        H  0.22182358  0.44166254  0.06396061     0.15170
C151        C  0.17242625  0.37374902  0.07884159     0.36820
C152        C  0.18311862  0.46654530  0.91076067     0.36730
N153        N  0.16966774  0.35511553  0.11308400    -0.43520
N154        N  0.18526082  0.48324118  0.87528932    -0.43520
C155        C  0.35824939  0.38933011  0.00063379     0.00070
C156        C  0.36439433  0.42243924  0.03197901    -0.11810
C157        C  0.33609347  0.45688585  0.03299827     0.02300
C158        C  0.30127890  0.46006381  0.00059663    -0.00020
C159        C  0.29538268  0.42685130  0.96876698    -0.11750
C160        C  0.32267093  0.39117618  0.96941361     0.02190
H161        H  0.39140827  0.42109400  0.05643354     0.15170
H162        H  0.27020048  0.42917344  0.94240333     0.15170
C163        C  0.31472281  0.35803844  0.93624329     0.36820
C164        C  0.34405860  0.48818629  0.06818561     0.36730
N165        N  0.30816502  0.33140342  0.90978908    -0.43520
N166        N  0.35150035  0.01266549  0.09677467    -0.43520
C167        C  0.20205221  0.03712833  0.99392502     0.00070
C168        C  0.17335773  0.04122047  0.03032133    -0.11810
C169        C  0.14547940  0.07591006  0.03286277     0.02300
C170        C  0.14544090  0.10749409  0.99823175    -0.00020
C171        C  0.17438609  0.10403569  0.96200679    -0.11750
C172        C  0.20222252  0.06895269  0.95923734     0.02190
H173        H  0.17295824  0.01720377  0.05724772     0.15170
H174        H  0.17385711  0.12777791  0.93476339     0.15170
C175        C  0.22840756  0.06521927  0.91910999     0.36820
C176        C  0.11761354  0.07877698  0.07187450     0.36730
N177        N  0.24908450  0.06230101  0.88664871    -0.43520
N178        N  0.09540200  0.08119856  0.10319813    -0.43520
C179        C  0.30317934  0.25323404  0.22330514     0.00070
C180        C  0.30616269  0.28762339  0.19168674    -0.11810
C181        C  0.33595758  0.28741423  0.15650554     0.02300
C182        C  0.36553587  0.25390917  0.15389728    -0.00020
C183        C  0.36858514  0.22460112  0.19041385    -0.11750
C184        C  0.33896529  0.22496070  0.22607402     0.02190
H185        H  0.28182115  0.31235583  0.19129740     0.15170
H186        H  0.39451279  0.20145074  0.19123892     0.15170
C187        C  0.34943354  0.19912354  0.26599524     0.36820
C188        C  0.33551488  0.32212511  0.12393205     0.36730
N189        N  0.35881690  0.17855191  0.29785745    -0.43520
N190        N  0.33481415  0.35043473  0.09839831    -0.43520
C191        C  0.15292601  0.23777508  0.14766352     0.00070
C192        C  0.14452813  0.23392024  0.19496842    -0.11810
C193        C  0.17792388  0.23614798  0.22853123     0.02300
C194        C  0.22150993  0.24213192  0.21515757    -0.00020
C195        C  0.22914579  0.23817760  0.16742161    -0.11750
C196        C  0.19631390  0.23957262  0.13425305     0.02190
H197        H  0.11151860  0.23084090  0.20616239     0.15170
H198        H  0.26107565  0.23388430  0.15433281     0.15170
C199        C  0.20929131  0.24471661  0.08698837     0.36820
C200        C  0.16563392  0.23447607  0.27612491     0.36730
N201        N  0.22000753  0.24969463  0.04944269    -0.43520
N202        N  0.15498564  0.23322172  0.31400419    -0.43520
C203        C  0.25686444  0.35868431  0.34232080     0.00070
C204        C  0.22237430  0.35351175  0.31104857    -0.11810
C205        C  0.22378275  0.32272715  0.27654597     0.02300
C206        C  0.25839150  0.29276941  0.27673643    -0.00020
C207        C  0.29520637  0.30276547  0.30476961    -0.11750
C208        C  0.29503541  0.33605589  0.33591578     0.02190
H209        H  0.19472017  0.37451203  0.31284393     0.15170
H210        H  0.32402995  0.28338728  0.30354948     0.15170
C211        C  0.33530882  0.34915925  0.35740805     0.36820
C212        C  0.19136229  0.32672800  0.24047331     0.36730
N213        N  0.36794088  0.36098680  0.37271286    -0.43520
N214        N  0.16478160  0.33167007  0.21229990    -0.43520
C215        C  0.25692629  0.14389748  0.35216716     0.00070
C216        C  0.25834694  0.13549848  0.30472417    -0.11810
C217        C  0.25925661  0.16830100  0.27174637     0.02300
C218        C  0.25918208  0.21162800  0.28559237    -0.00020
C219        C  0.25485249  0.21911991  0.33336191    -0.11750
C220        C  0.25503509  0.18666674  0.36610474     0.02190
H221        H  0.25909949  0.10293901  0.29298030     0.15170
H222        H  0.24981032  0.25051257  0.34663849     0.15170
C223        C  0.25237502  0.19925118  0.41373872     0.36820
C224        C  0.26144521  0.15589184  0.22411719     0.36730
N225        N  0.25033104  0.20969107  0.45171338    -0.43520
N226        N  0.26329184  0.14520370  0.18621221    -0.43520
C227        C  0.39369595  0.34991833  0.49928505     0.00070
C228        C  0.38661864  0.31727197  0.46768842    -0.11810
C229        C  0.41702324  0.28528074  0.46188240     0.02300
C230        C  0.45418364  0.28290352  0.49119610    -0.00020
C231        C  0.46065250  0.31492887  0.52414961    -0.11750
C232        C  0.43148601  0.34885308  0.52753257     0.02190
H233        H  0.35725844  0.31706101  0.44670003     0.15170
H234        H  0.48762100  0.31274475  0.54846613     0.15170
C235        C  0.43964171  0.38032906  0.56244923     0.36820
C236        C  0.40893177  0.25566655  0.42499185     0.36730
N237        N  0.44650233  0.40526703  0.59070198    -0.43520
N238        N  0.40163520  0.23263735  0.39497191    -0.43520
C239        C  0.11371735  0.13840803  0.49681309     0.00070
C240        C  0.08635449  0.14449756  0.53403751    -0.11810
C241        C  0.05645707  0.17804814  0.53364656     0.02300
C242        C  0.05300093  0.20533216  0.49492487    -0.00020
C243        C  0.08031566  0.19879253  0.45777251    -0.11750
C244        C  0.11008365  0.16553574  0.45820613     0.02190
H245        H  0.08931684  0.12385506  0.56398147     0.15170
H246        H  0.07832178  0.21991581  0.42814978     0.15170
C247        C  0.13548721  0.15891679  0.41789914     0.36820
C248        C  0.03183929  0.18542897  0.57432458     0.36730
N249        N  0.15535913  0.15326439  0.38532556    -0.43520
N250        N  0.01228729  0.19141601  0.60707352    -0.43520
C251        C  0.11231516  0.35119057  0.49211421     0.00070
C252        C  0.08466277  0.34418796  0.45389517    -0.11810
C253        C  0.05438987  0.31087765  0.45422043     0.02300
C254        C  0.05121018  0.28462179  0.49358826    -0.00020
C255        C  0.07775036  0.29291628  0.53225752    -0.11750
C256        C  0.10787354  0.32591553  0.53186562     0.02190
H257        H  0.08762632  0.36390378  0.42338050     0.15170
H258        H  0.07542870  0.27291677  0.56265606     0.15170
C259        C  0.13314375  0.33404453  0.57313107     0.36820
C260        C  0.02864072  0.30281535  0.41319494     0.36730
N261        N  0.15300915  0.34101435  0.60637626    -0.43520
N262        N  0.00795696  0.29623047  0.38034157    -0.43520
C263        C  0.45658059  0.20303564  0.49774624     0.00070
C264        C  0.42693726  0.20087368  0.53360355    -0.11810
C265        C  0.39589298  0.16874569  0.53539892     0.02300
C266        C  0.39477579  0.13705894  0.50150892    -0.00020
C267        C  0.42579025  0.13766920  0.46703222    -0.11750
C268        C  0.45601272  0.17072698  0.46425699     0.02190
H269        H  0.42688834  0.22563651  0.55932845     0.15170
H270        H  0.42481636  0.11349431  0.44066210     0.15170
C271        C  0.48230514  0.17308572  0.42399693     0.36820
C272        C  0.36557354  0.16917685  0.57234435     0.36730
N273        N  0.50266111  0.17480638  0.39115970    -0.43520
N274        N  0.34136337  0.16990277  0.60202040    -0.43520
C275        C  0.28756647  0.24025996  0.77952631     0.00070
C276        C  0.31945159  0.27264633  0.77867542    -0.11810
C277        C  0.35253178  0.27520759  0.81209511     0.02300
C278        C  0.35412899  0.24611673  0.84900364    -0.00020
C279        C  0.32340197  0.21379755  0.85082673    -0.11750
C280        C  0.29093429  0.21009848  0.81675081     0.02190
H281        H  0.31851590  0.29774503  0.75327232     0.15170
H282        H  0.32511580  0.19086889  0.87889272     0.15170
C283        C  0.26120129  0.17510793  0.82206229     0.36820
C284        C  0.38332897  0.30955049  0.80884785     0.36730
N285        N  0.23801526  0.14670816  0.82707251    -0.43520
N286        N  0.40793773  0.33706088  0.80603964    -0.43520
C287        C  0.20769027  0.24359167  0.77964468     0.00070
C288        C  0.21144281  0.27356720  0.81594652    -0.11810
C289        C  0.18174535  0.27585561  0.85116366     0.02300
C290        C  0.14496330  0.24988733  0.84975797    -0.00020
C291        C  0.14010725  0.22025236  0.81461064    -0.11750
C292        C  0.17162419  0.21496828  0.78144014     0.02190
H293        H  0.23843597  0.29552023  0.81700749     0.15170
H294        H  0.11254332  0.19890141  0.81500107     0.15170
C295        C  0.16642980  0.17686251  0.75471621     0.36820
C296        C  0.18999859  0.30531185  0.88810776     0.36730
N297        N  0.16090810  0.14549800  0.73492552    -0.43520
N298        N  0.19748486  0.32852336  0.91787491    -0.43520
C299        C  0.25624559  0.34674444  0.64377127     0.00070
C300        C  0.22636228  0.35011300  0.67877118    -0.11810
C301        C  0.22050939  0.31765685  0.71122284     0.02300
C302        C  0.24889662  0.28162435  0.71272307    -0.00020
C303        C  0.28054185  0.28019194  0.67796662    -0.11750
C304        C  0.28327531  0.31104330  0.64315196     0.02190
H305        H  0.20500677  0.37744445  0.67873674     0.15170
H306        H  0.30287063  0.25373469  0.67731504     0.15170
C307        C  0.31441989  0.30529682  0.60757461     0.36820
C308        C  0.18240462  0.32268859  0.73819080     0.36730
N309        N  0.33924225  0.30008336  0.57904419    -0.43520
N310        N  0.15119708  0.32831355  0.75842469    -0.43520
C311        C  0.24534643  0.20260584  0.71296873     0.00070
C312        C  0.27734449  0.17041753  0.71609921    -0.11810
C313        C  0.27813613  0.13645746  0.68553035     0.02300
C314        C  0.24853512  0.13500641  0.64826382    -0.00020
C315        C  0.21802425  0.16739513  0.64276465    -0.11750
C316        C  0.21570844  0.20051964  0.67441975     0.02190
H317        H  0.30316111  0.17136993  0.74155829     0.15170
H318        H  0.19522654  0.16639086  0.61383915     0.15170
C319        C  0.18121188  0.23082216  0.66681421     0.36820
C320        C  0.31158883  0.10484543  0.69167768     0.36730
N321        N  0.15297528  0.25427588  0.66024713    -0.43520
N322        N  0.33848700  0.07968401  0.69683765    -0.43520
C323        C  0.24660880  0.74177402  0.74605924    -0.02260
O324        O  0.13197452  0.56565709  0.50006197    -0.75070
O325        O  0.18615505  0.61489884  0.49697291    -0.53980
C326        C  0.14608951  0.60407765  0.49854507     0.78660
O327        O  0.25574499  0.91924342  0.62370650    -0.59670
O328        O  0.25698607  0.87079090  0.56572449    -0.52700
C329        C  0.25703732  0.88099029  0.60857614     0.70670
O330        O  0.25174286  0.56250859  0.62753401    -0.74230
O331        O  0.24978576  0.61337756  0.57107192    -0.54790
C332        C  0.25010071  0.60137116  0.61340242     0.76680
O333        O  0.13131944  0.92363340  0.48920317    -0.59370
O334        O  0.18522578  0.87407174  0.49336958    -0.52490
C335        C  0.14515422  0.88516215  0.49081761     0.73270
Zr336      Zr  0.16266260  0.99448390  0.49477519     2.54710
O337        O  0.10872202  0.98986676  0.55415230    -0.79940
O338        O  0.10908558  0.99830087  0.43216873    -0.93360
Zr339      Zr  0.25311450  0.99165097  0.59377941     2.64680
O340        O  0.19520547  0.48885805  0.64895759    -0.98310
O341        O  0.30843306  0.99063337  0.65464474    -0.80370
O342        O  0.20734608  0.53410432  0.54603961    -0.83730
O343        O  0.20731049  0.95174171  0.54379590    -2.18440
O344        O  0.25154255  0.92932571  0.36509733    -0.67120
O345        O  0.25579155  0.87760332  0.42071156    -0.51680
C346        C  0.25418882  0.89054993  0.37851107     0.71650
O347        O  0.37513877  0.56497620  0.49753470    -0.60030
O348        O  0.32170244  0.61439400  0.50379245    -0.52000
C349        C  0.36161678  0.60335160  0.50099663     0.73450
O350        O  0.37524016  0.92290127  0.50387614    -0.71420
O351        O  0.32120297  0.87392498  0.49627502    -0.50100
C352        C  0.36129814  0.88450514  0.50059601     0.74840
O353        O  0.25556585  0.56987551  0.36958620    -0.66750
O354        O  0.25596267  0.61632238  0.42886782    -0.53950
C355        C  0.25620693  0.60776570  0.38573402     0.73220
Zr356      Zr  0.25351651  0.99814041  0.40107943     2.77540
O357        O  0.31079416  0.49955343  0.34509713    -0.97500
O358        O  0.19578689  0.50172519  0.34287746    -0.78320
Zr359      Zr  0.34414011  0.99409799  0.50008895     2.70070
O360        O  0.39827429  0.99118695  0.44086113    -0.79570
O361        O  0.39736158  0.99805627  0.56283532    -0.98650
Zr362      Zr  0.25367599  0.57561350  0.49955097     2.21500
Zr363      Zr  0.25349214  0.91276647  0.49497782     2.11130
O364        O  0.29942180  0.95505253  0.44849033    -2.47340
O365        O  0.29988370  0.53715144  0.45100002    -0.79360
O366        O  0.20762358  0.95483861  0.44600665    -0.71560
O367        O  0.29959781  0.53400274  0.54891266    -2.32510
O368        O  0.20727094  0.53745961  0.44822688    -2.28720
O369        O  0.29909318  0.95170502  0.54650987    -0.73320
H370        H  0.18964573  0.93278349  0.56164568     0.78680
H371        H  0.31724371  0.55181065  0.56868774     0.79770
H372        H  0.31729521  0.93748279  0.42965074     0.81990
H373        H  0.18977715  0.55649226  0.42943278     0.79600
H374        H  0.33442547  0.50249741  0.64009984     0.42640
H375        H  0.38949507  0.97463376  0.58393719     0.41610
H376        H  0.38591909  0.50839353  0.41512252     0.41280
H377        H  0.32766268  0.97335271  0.35120431     0.39220
H378        H  0.17220315  0.98439548  0.35574630     0.42350
H379        H  0.11510031  0.52537514  0.41601470     0.37130
H380        H  0.12182287  0.50512002  0.58066812     0.43250
H381        H  0.17890947  0.96266550  0.64143515     0.39670
H382        H  0.29583779  0.99450593  0.31515020     0.44580
H383        H  0.08138882  0.00321348  0.44758500     0.43310
H384        H  0.20997159  0.98244098  0.67878953     0.43440
H385        H  0.42470917  0.98880185  0.54910947     0.43800
C386        C  0.48151144  0.74347317  0.49274764     0.00790
C387        C  0.02577335  0.74443467  0.49379642     0.00790
C388        C  0.26016917  0.74961619  0.25031905    -0.02260
C389        C  0.22955480  0.99799431  0.99333812     0.00790
C390        C  0.27378966  0.99955108  0.99734888     0.00790
O391        O  0.07211643  0.75129223  0.87082536    -0.75070
O392        O  0.12442754  0.75087593  0.92751186    -0.53980
C393        C  0.11177986  0.75126773  0.88511063     0.78660
O394        O  0.43090726  0.86731411  0.00337605    -0.59670
O395        O  0.37872497  0.81625130  0.99745350    -0.52700
C396        C  0.39120456  0.85519785  0.00023667     0.70670
O397        O  0.07618280  0.86632099  0.99891498    -0.74230
O398        O  0.12684644  0.81355916  0.00124373    -0.54790
C399        C  0.11542970  0.85289965  0.99975518     0.76680
O400        O  0.42749752  0.75002545  0.87050244    -0.59370
O401        O  0.37775993  0.74684505  0.92731212    -0.52490
C402        C  0.38861224  0.74786551  0.88476713     0.73270
Zr403      Zr  0.00017837  0.75204010  0.90308967     2.54710
O404        O  0.99899665  0.81266853  0.85066682    -0.79940
O405        O  0.49798136  0.70100961  0.84057338    -0.93360
Zr406      Zr  0.00337754  0.83709554  0.00201475     2.64680
O407        O  0.00215500  0.89306869  0.94372177    -0.98310
O408        O  0.50613002  0.88757773  0.06500805    -0.80370
O409        O  0.04394230  0.79493094  0.95156717    -0.83730
O410        O  0.45936437  0.79553962  0.95201519    -2.18440
O411        O  0.42712950  0.63185738  0.98970574    -0.67120
O412        O  0.37682685  0.68373127  0.99972182    -0.51680
C413        C  0.38794490  0.64487921  0.99324916     0.71650
O414        O  0.07787340  0.74007687  0.12888619    -0.60030
O415        O  0.12537188  0.74212105  0.07066747    -0.52000
C416        C  0.11640061  0.73997026  0.11353205     0.73450
O417        O  0.43637599  0.74743933  0.12997530    -0.71420
O418        O  0.38313870  0.75325764  0.07447669    -0.50100
C419        C  0.39685381  0.75144052  0.11677239     0.74840
O420        O  0.07283841  0.62907339  0.99881600    -0.66750
O421        O  0.12489839  0.68040239  0.99506715    -0.53950
C422        C  0.11243385  0.64140352  0.99722937     0.73220
Zr423      Zr  0.00060273  0.65965935  0.99606883     2.77540
O424        O  0.99810907  0.60395791  0.05453890    -0.97500
O425        O  0.00186095  0.60866038  0.93368927    -0.78320
Zr426      Zr  0.00579486  0.74455326  0.09496698     2.70070
O427        O  0.00404277  0.68506903  0.14885621    -0.79570
O428        O  0.01193018  0.79845989  0.15432299    -0.98650
Zr429      Zr  0.08568088  0.74738448  0.99845537     2.21500
Zr430      Zr  0.41837731  0.74948455  0.00006760     2.11130
O431        O  0.46068084  0.70196774  0.04698265    -2.47340
O432        O  0.04542613  0.70068961  0.04577025    -0.79360
O433        O  0.45834930  0.70618208  0.94939474    -0.71560
O434        O  0.04663628  0.79132632  0.04904967    -2.32510
O435        O  0.04232085  0.70433014  0.94845909    -2.28720
O436        O  0.46246339  0.79192819  0.04986800    -0.73320
H437        H  0.44063882  0.81358554  0.93340819     0.78680
H438        H  0.06603999  0.80774580  0.06840623     0.79770
H439        H  0.44242570  0.68425529  0.06560682     0.81990
H440        H  0.06001748  0.68720044  0.92897551     0.79600
H441        H  0.02764799  0.87570854  0.08729888     0.42640
H442        H  0.48794015  0.81841081  0.14732724     0.41610
H443        H  0.02050403  0.66236845  0.13377169     0.41280
H444        H  0.47096852  0.60895538  0.07096364     0.39220
H445        H  0.49217794  0.62505323  0.90614441     0.42350
H446        H  0.02289274  0.68197995  0.84679504     0.37130
H447        H  0.02099229  0.83234657  0.86360003     0.43250
H448        H  0.47666583  0.88669800  0.92374643     0.39670
H449        H  0.99270513  0.57759326  0.03700076     0.44580
H450        H  0.50606455  0.71760586  0.81300926     0.43310
H451        H  0.99406271  0.91898669  0.96050012     0.43440
H452        H  0.00349553  0.78375322  0.18297700     0.43800
C453        C  0.29799885  0.54075437  0.99442545     0.00070
C454        C  0.32678919  0.54566838  0.95818938    -0.11810
C455        C  0.35418927  0.58085672  0.95563131     0.02300
C456        C  0.35385055  0.61191158  0.99032381    -0.00020
C457        C  0.32376526  0.60827049  0.02552314    -0.11750
C458        C  0.29616209  0.57290718  0.02811902     0.02190
H459        H  0.32821109  0.52143640  0.93196209     0.15170
H460        H  0.32371108  0.63171531  0.05264343     0.15170
C461        C  0.26982649  0.56843164  0.06816071     0.36820
C462        C  0.38224114  0.58450866  0.91680333     0.36730
N463        N  0.24928919  0.56499513  0.10072700    -0.43520
N464        N  0.40447185  0.58750493  0.88550236    -0.43520
C465        C  0.14928454  0.88590042  0.99757731     0.00070
C466        C  0.15229168  0.90975290  0.95694931    -0.11810
C467        C  0.18019964  0.94457422  0.95430360     0.02300
C468        C  0.20509986  0.95694263  0.99329293    -0.00020
C469        C  0.20308130  0.93226737  0.03373793    -0.11750
C470        C  0.17546467  0.89684912  0.03603750     0.02190
H471        H  0.13238671  0.90127677  0.92718726     0.15170
H472        H  0.22182068  0.94166488  0.06396291     0.15170
C473        C  0.17242196  0.87375246  0.07884450     0.36820
C474        C  0.18312148  0.96654310  0.91076063     0.36730
N475        N  0.16966146  0.85512065  0.11308775    -0.43520
N476        N  0.18526488  0.98323804  0.87528888    -0.43520
C477        C  0.35824938  0.88933001  0.00063433     0.00070
C478        C  0.36439492  0.92243966  0.03197877    -0.11810
C479        C  0.33609416  0.95688636  0.03299798     0.02300
C480        C  0.30127903  0.96006391  0.00059695    -0.00020
C481        C  0.29538233  0.92685095  0.96876793    -0.11750
C482        C  0.32267045  0.89117572  0.96941474     0.02190
H483        H  0.39140929  0.92109479  0.05643278     0.15170
H484        H  0.27019989  0.92917278  0.94240455     0.15170
C485        C  0.31472172  0.85803751  0.93624513     0.36820
C486        C  0.34406007  0.98818730  0.06818462     0.36730
N487        N  0.30816347  0.83140209  0.90979150    -0.43520
N488        N  0.35149818  0.51266409  0.09677625    -0.43520
C489        C  0.20205227  0.53712833  0.99392444     0.00070
C490        C  0.17335744  0.54122014  0.03032047    -0.11810
C491        C  0.14547909  0.57590970  0.03286198     0.02300
C492        C  0.14544092  0.60749405  0.99823130    -0.00020
C493        C  0.17438646  0.60403598  0.96200662    -0.11750
C494        C  0.20222292  0.56895300  0.95923710     0.02190
H495        H  0.17295770  0.51720316  0.05724658     0.15170
H496        H  0.17385774  0.62777842  0.93476346     0.15170
C497        C  0.22840826  0.56521984  0.91910995     0.36820
C498        C  0.11761287  0.57877624  0.07187345     0.36730
N499        N  0.24908544  0.56230172  0.88664883    -0.43520
N500        N  0.09540104  0.58119749  0.10319688    -0.43520
C501        C  0.30317995  0.75323393  0.22330561     0.00070
C502        C  0.30616491  0.78762431  0.19168869    -0.11810
C503        C  0.33595998  0.78741517  0.15650764     0.02300
C504        C  0.36553648  0.75390874  0.15389779    -0.00020
C505        C  0.36858453  0.72459942  0.19041320    -0.11750
C506        C  0.33896487  0.72495925  0.22607353     0.02190
H507        H  0.28182444  0.81235776  0.19130024     0.15170
H508        H  0.39451123  0.70144801  0.19123735     0.15170
C509        C  0.34943264  0.69912107  0.26599411     0.36820
C510        C  0.33551962  0.82212760  0.12393612     0.36730
N511        N  0.35881572  0.67854863  0.29785579    -0.43520
N512        N  0.33482105  0.85043851  0.09840407    -0.43520
C513        C  0.15292637  0.73777686  0.14766290     0.00070
C514        C  0.14452875  0.73391901  0.19496756    -0.11810
C515        C  0.17792441  0.73614685  0.22853045     0.02300
C516        C  0.22151033  0.74213283  0.21515707    -0.00020
C517        C  0.22914614  0.73818165  0.16742076    -0.11750
C518        C  0.19631410  0.73957805  0.13425246     0.02190
H519        H  0.11151939  0.73083728  0.20616137     0.15170
H520        H  0.26107593  0.73389007  0.15433130     0.15170
C521        C  0.20929103  0.74472817  0.08698833     0.36820
C522        C  0.16563435  0.73447269  0.27612402     0.36730
N523        N  0.22000673  0.74971129  0.04944321    -0.43520
N524        N  0.15498594  0.73321648  0.31400319    -0.43520
C525        C  0.25686445  0.85868424  0.34232138     0.00070
C526        C  0.22237377  0.85351107  0.31104999    -0.11810
C527        C  0.22378205  0.82272659  0.27654727     0.02300
C528        C  0.25839146  0.79276955  0.27673668    -0.00020
C529        C  0.29520659  0.80276606  0.30476930    -0.11750
C530        C  0.29503564  0.83605639  0.33591559     0.02190
H531        H  0.19471929  0.87451083  0.31284612     0.15170
H532        H  0.32403042  0.78338826  0.30354868     0.15170
C533        C  0.33530913  0.84916009  0.35740743     0.36820
C534        C  0.19136038  0.82672680  0.24047577     0.36730
N535        N  0.36794120  0.86098786  0.37271199    -0.43520
N536        N  0.16477868  0.83166845  0.21230334    -0.43520
C537        C  0.25692592  0.64389741  0.35216671     0.00070
C538        C  0.25834544  0.63549855  0.30472360    -0.11810
C539        C  0.25925524  0.66830120  0.27174593     0.02300
C540        C  0.25918197  0.71162814  0.28559219    -0.00020
C541        C  0.25485341  0.71911993  0.33336189    -0.11750
C542        C  0.25503591  0.68666665  0.36610455     0.02190
H543        H  0.25909700  0.60293911  0.29297953     0.15170
H544        H  0.24981224  0.75051260  0.34663883     0.15170
C545        C  0.25237715  0.69925101  0.41373868     0.36820
C546        C  0.26144258  0.65589234  0.22411655     0.36730
N547        N  0.25033423  0.70969085  0.45171344    -0.43520
N548        N  0.26328811  0.64520470  0.18621131    -0.43520
C549        C  0.39369606  0.84991840  0.49928488     0.00070
C550        C  0.38661895  0.81727234  0.46768783    -0.11810
C551        C  0.41702352  0.78528108  0.46188182     0.02300
C552        C  0.45418373  0.78290361  0.49119578    -0.00020
C553        C  0.46065244  0.81492873  0.52414959    -0.11750
C554        C  0.43148596  0.84885291  0.52753265     0.02190
H555        H  0.35725891  0.81706162  0.44669918     0.15170
H556        H  0.48762080  0.81274441  0.54846626     0.15170
C557        C  0.43964144  0.88032861  0.56244966     0.36820
C558        C  0.40893224  0.75566708  0.42499105     0.36730
N559        N  0.44650187  0.90526637  0.59070269    -0.43520
N560        N  0.40163584  0.73263802  0.39497094    -0.43520
C561        C  0.11371728  0.63840797  0.49681338     0.00070
C562        C  0.08635434  0.64449750  0.53403774    -0.11810
C563        C  0.05645694  0.67804812  0.53364671     0.02300
C564        C  0.05300091  0.70533215  0.49492502    -0.00020
C565        C  0.08031571  0.69879250  0.45777273    -0.11750
C566        C  0.11008368  0.66553569  0.45820643     0.02190
H567        H  0.08931662  0.62385500  0.56398170     0.15170
H568        H  0.07832192  0.71991578  0.42815000     0.15170
C569        C  0.13548737  0.65891672  0.41789954     0.36820
C570        C  0.03183909  0.68542898  0.57432467     0.36730
N571        N  0.15535947  0.65326421  0.38532611    -0.43520
N572        N  0.01228702  0.69141604  0.60707356    -0.43520
C573        C  0.11231523  0.85119057  0.49211448     0.00070
C574        C  0.08466290  0.84418796  0.45389538    -0.11810
C575        C  0.05439000  0.81087766  0.45422057     0.02300
C576        C  0.05121023  0.78462178  0.49358839    -0.00020
C577        C  0.07775035  0.79291627  0.53225770    -0.11750
C578        C  0.10787354  0.82591551  0.53186586     0.02190
H579        H  0.08762651  0.86390379  0.42338072     0.15170
H580        H  0.07542863  0.77291675  0.56265622     0.15170
C581        C  0.13314368  0.83404448  0.57313136     0.36820
C582        C  0.02864094  0.80281536  0.41319501     0.36730
N583        N  0.15300901  0.84101426  0.60637660    -0.43520
N584        N  0.00795727  0.79623047  0.38034159    -0.43520
C585        C  0.45658048  0.70303572  0.49774577     0.00070
C586        C  0.42693708  0.70087376  0.53360300    -0.11810
C587        C  0.39589280  0.66874576  0.53539833     0.02300
C588        C  0.39477566  0.63705900  0.50150833    -0.00020
C589        C  0.42579016  0.63766929  0.46703167    -0.11750
C590        C  0.45601265  0.67072707  0.46425650     0.02190
H591        H  0.42688813  0.72563657  0.55932792     0.15170
H592        H  0.42481631  0.61349439  0.44066155     0.15170
C593        C  0.48230517  0.67308579  0.42399652     0.36820
C594        C  0.36557334  0.66917690  0.57234374     0.36730
N595        N  0.50266125  0.67480642  0.39115937    -0.43520
N596        N  0.34136316  0.66990282  0.60201978    -0.43520
C597        C  0.28756642  0.74025977  0.77952634     0.00070
C598        C  0.31945136  0.77264632  0.77867569    -0.11810
C599        C  0.35253147  0.77520764  0.81209547     0.02300
C600        C  0.35412877  0.74611666  0.84900389    -0.00020
C601        C  0.32340188  0.71379732  0.85082679    -0.11750
C602        C  0.29093430  0.71009821  0.81675075     0.02190
H603        H  0.31851557  0.79774514  0.75327273     0.15170
H604        H  0.32511577  0.69086858  0.87889269     0.15170
C605        C  0.26120142  0.67510754  0.82206204     0.36820
C606        C  0.38332849  0.80955070  0.80884842     0.36730
N607        N  0.23801548  0.64670767  0.82707211    -0.43520
N608        N  0.40793713  0.83706121  0.80604038    -0.43520
C609        C  0.20769025  0.74359133  0.77964452     0.00070
C610        C  0.21144261  0.77356707  0.81594617    -0.11810
C611        C  0.18174509  0.77585552  0.85116323     0.02300
C612        C  0.14496309  0.74988717  0.84975757    -0.00020
C613        C  0.14010719  0.72025202  0.81461039    -0.11750
C614        C  0.17162425  0.71496786  0.78144002     0.02190
H615        H  0.23843569  0.79552017  0.81700708     0.15170
H616        H  0.11254331  0.69890101  0.81500087     0.15170
C617        C  0.16643006  0.67686199  0.75471623     0.36820
C618        C  0.18999830  0.80531178  0.88810730     0.36730
N619        N  0.16090854  0.64549740  0.73492562    -0.43520
N620        N  0.19748459  0.82852325  0.91787448    -0.43520
C621        C  0.25624569  0.84674451  0.64377166     0.00070
C622        C  0.22636203  0.85011274  0.67877126    -0.11810
C623        C  0.22050902  0.81765638  0.71122264     0.02300
C624        C  0.24889655  0.78162411  0.71272305    -0.00020
C625        C  0.28054205  0.78019199  0.67796688    -0.11750
C626        C  0.28327565  0.81104354  0.64315244     0.02190
H627        H  0.20500630  0.87744402  0.67873670     0.15170
H628        H  0.30287098  0.75373485  0.67731539     0.15170
C629        C  0.31442067  0.80529747  0.60757545     0.36820
C630        C  0.18240369  0.82268749  0.73818989     0.36730
N631        N  0.33924341  0.80008435  0.57904533    -0.43520
N632        N  0.15119569  0.82831182  0.75842319    -0.43520
C633        C  0.24534655  0.70260562  0.71296857     0.00070
C634        C  0.27734472  0.67041742  0.71609897    -0.11810
C635        C  0.27813643  0.63645738  0.68553006     0.02300
C636        C  0.24853538  0.63500628  0.64826357    -0.00020
C637        C  0.21802440  0.66739491  0.64276449    -0.11750
C638        C  0.21570852  0.70051936  0.67441963     0.02190
H639        H  0.30316136  0.67136988  0.74155804     0.15170
H640        H  0.19522665  0.66639058  0.61383902     0.15170
C641        C  0.18121182  0.73082174  0.66681415     0.36820
C642        C  0.31158921  0.60484542  0.69167731     0.36730
N643        N  0.15297509  0.75427530  0.66024703    -0.43520
N644        N  0.33848744  0.57968406  0.69683721    -0.43520
C645        C  0.74660890  0.24177426  0.74605935    -0.02260
O646        O  0.63197459  0.06565713  0.50006196    -0.75070
O647        O  0.68615511  0.11489889  0.49697296    -0.53980
C648        C  0.64608957  0.10407769  0.49854505     0.78660
O649        O  0.75574512  0.41924339  0.62370620    -0.59670
O650        O  0.75698600  0.37079085  0.56572421    -0.52700
C651        C  0.75703734  0.38099025  0.60857585     0.70670
O652        O  0.75174275  0.06250871  0.62753427    -0.74230
O653        O  0.74978570  0.11337765  0.57107215    -0.54790
C654        C  0.75010061  0.10137128  0.61340265     0.76680
O655        O  0.63131938  0.42363338  0.48920308    -0.59370
O656        O  0.68522573  0.37407172  0.49336934    -0.52490
C657        C  0.64515417  0.38516213  0.49081746     0.73270
Zr658      Zr  0.66266254  0.49448387  0.49477512     2.54710
O659        O  0.60872198  0.48986653  0.55415223    -0.79940
O660        O  0.60908549  0.49830102  0.43216870    -0.93360
Zr661      Zr  0.75311465  0.49165093  0.59377913     2.64680
O662        O  0.69520533  0.98885816  0.64895782    -0.98310
O663        O  0.80843335  0.49063328  0.65464431    -0.80370
O664        O  0.70734608  0.03410438  0.54603985    -0.83730
O665        O  0.70731053  0.45174168  0.54379572    -2.18440
O666        O  0.75154221  0.42932570  0.36509699    -0.67120
O667        O  0.75579151  0.37760334  0.42071123    -0.51680
C668        C  0.75418864  0.39054993  0.37851073     0.71650
O669        O  0.87513883  0.06497621  0.49753514    -0.60030
O670        O  0.82170251  0.11439402  0.50379280    -0.52000
C671        C  0.86161684  0.10335161  0.50099702     0.73450
O672        O  0.87524011  0.42290128  0.50387588    -0.71420
O673        O  0.82120292  0.37392498  0.49627489    -0.50100
C674        C  0.86129809  0.38450514  0.50059588     0.74840
O675        O  0.75556598  0.06987554  0.36958659    -0.66750
O676        O  0.75596287  0.11632248  0.42886816    -0.53950
C677        C  0.75620708  0.10776575  0.38573437     0.73220
Zr678      Zr  0.75351625  0.49814036  0.40107913     2.77540
O679        O  0.81079439  0.99955342  0.34509754    -0.97500
O680        O  0.69578719  0.00172508  0.34287767    -0.78320
Zr681      Zr  0.84414006  0.49409800  0.50008845     2.70070
O682        O  0.89827403  0.49118686  0.44086040    -0.79570
O683        O  0.89736175  0.49805646  0.56283459    -0.98650
Zr684      Zr  0.75367604  0.07561354  0.49955126     2.21500
Zr685      Zr  0.75349209  0.41276644  0.49497754     2.11130
O686        O  0.79942165  0.45505251  0.44848994    -2.47340
O687        O  0.79988382  0.03715145  0.45100039    -0.79360
O688        O  0.70762342  0.45483856  0.44600647    -0.71560
O689        O  0.79959781  0.03400281  0.54891304    -2.32510
O690        O  0.70727105  0.03745960  0.44822714    -2.28720
O691        O  0.79909323  0.45170502  0.54650947    -0.73320
H692        H  0.68964581  0.43278345  0.56164554     0.78680
H693        H  0.81724369  0.05181073  0.56868813     0.79770
H694        H  0.81729503  0.43748277  0.42965032     0.81990
H695        H  0.68977728  0.05649224  0.42943299     0.79600
H696        H  0.83442537  0.00249744  0.64010029     0.42640
H697        H  0.88949528  0.47463405  0.58393662     0.41610
H698        H  0.88591927  0.00839343  0.41512303     0.41280
H699        H  0.82766235  0.47335263  0.35120391     0.39220
H700        H  0.67220273  0.48439555  0.35574630     0.42350
H701        H  0.61510051  0.02537491  0.41601473     0.37130
H702        H  0.62182284  0.00512031  0.58066825     0.43250
H703        H  0.67890970  0.46266552  0.64143504     0.39670
H704        H  0.79583743  0.49450588  0.31514985     0.44580
H705        H  0.58138870  0.50321329  0.44758502     0.43310
H706        H  0.70997191  0.48244097  0.67878935     0.43440
H707        H  0.92470928  0.48880192  0.54910868     0.43800
C708        C  0.98151143  0.24347315  0.49274771     0.00790
C709        C  0.52577335  0.24443466  0.49379663     0.00790
C710        C  0.76016890  0.24961599  0.25031908    -0.02260
C711        C  0.72955485  0.49799429  0.99333772     0.00790
C712        C  0.77378969  0.49955102  0.99734875     0.00790
O713        O  0.57211664  0.25129229  0.87082555    -0.75070
O714        O  0.62442766  0.25087599  0.92751214    -0.53980
C715        C  0.61178004  0.25126782  0.88511090     0.78660
O716        O  0.93090736  0.36731423  0.00337597    -0.59670
O717        O  0.87872506  0.31625143  0.99745326    -0.52700
C718        C  0.89120466  0.35519797  0.00023648     0.70670
O719        O  0.57618287  0.36632096  0.99891435    -0.74230
O720        O  0.62684650  0.31355913  0.00124375    -0.54790
C721        C  0.61542977  0.35289962  0.99975476     0.76680
O722        O  0.92749774  0.25002546  0.87050243    -0.59370
O723        O  0.87776007  0.24684517  0.92731203    -0.52490
C724        C  0.88861244  0.24786559  0.88476707     0.73270
Zr725      Zr  0.50017852  0.25204001  0.90308968     2.54710
O726        O  0.49899688  0.31266830  0.85066662    -0.79940
O727        O  0.99798171  0.20100927  0.84057379    -0.93360
Zr728      Zr  0.50337756  0.33709564  0.00201458     2.64680
O729        O  0.50215501  0.39306886  0.94372167    -0.98310
O730        O  0.00613050  0.38757777  0.06500808    -0.80370
O731        O  0.54394236  0.29493091  0.95156719    -0.83730
O732        O  0.95936451  0.29553966  0.95201519    -2.18440
O733        O  0.92712933  0.13185749  0.98970580    -0.67120
O734        O  0.87682675  0.18373147  0.99972175    -0.51680
C735        C  0.88794473  0.14487939  0.99324913     0.71650
O736        O  0.57787303  0.24007619  0.12888637    -0.60030
O737        O  0.62537166  0.24212126  0.07066782    -0.52000
C738        C  0.61640030  0.23996979  0.11353235     0.73450
O739        O  0.93637568  0.24743980  0.12997525    -0.71420
O740        O  0.88313849  0.25325776  0.07447651    -0.50100
C741        C  0.89685351  0.25144083  0.11677224     0.74840
O742        O  0.57283833  0.12907344  0.99881625    -0.66750
O743        O  0.62489832  0.18040245  0.99506745    -0.53950
C744        C  0.61243377  0.14140358  0.99722965     0.73220
Zr745      Zr  0.50060264  0.15965941  0.99606902     2.77540
O746        O  0.49810894  0.10395824  0.05453939    -0.97500
O747        O  0.50186083  0.10866017  0.93368972    -0.78320
Zr748      Zr  0.50579460  0.24455352  0.09496700     2.70070
O749        O  0.50404177  0.18506957  0.14885655    -0.79570
O750        O  0.51193030  0.29846030  0.15432282    -0.98650
Zr751      Zr  0.58568084  0.24738455  0.99845558     2.21500
Zr752      Zr  0.91837732  0.24948467  0.00006756     2.11130
O753        O  0.96068069  0.20196788  0.04698278    -2.47340
O754        O  0.54542594  0.20068977  0.04577044    -0.79360
O755        O  0.95834932  0.20618208  0.94939485    -0.71560
O756        O  0.54663619  0.29132650  0.04904973    -2.32510
O757        O  0.54232089  0.20433012  0.94845929    -2.28720
O758        O  0.96246335  0.29192834  0.04986799    -0.73320
H759        H  0.94063901  0.31358558  0.93340812     0.78680
H760        H  0.56603989  0.30774597  0.06840630     0.79770
H761        H  0.94242549  0.18425548  0.06560694     0.81990
H762        H  0.56001755  0.18720040  0.92897578     0.79600
H763        H  0.52764862  0.37570899  0.08729837     0.42640
H764        H  0.98794056  0.31841134  0.14732700     0.41610
H765        H  0.52050301  0.16236882  0.13377229     0.41280
H766        H  0.97096806  0.10895554  0.07096387     0.39220
H767        H  0.99217759  0.12505285  0.90614489     0.42350
H768        H  0.52289310  0.18197971  0.84679537     0.37130
H769        H  0.52099217  0.33234656  0.86360007     0.43250
H770        H  0.97666581  0.38669818  0.92374656     0.39670
H771        H  0.49270523  0.07759348  0.03700137     0.44580
H772        H  0.00606495  0.21760542  0.81300962     0.43310
H773        H  0.49406263  0.41898682  0.96050002     0.43440
H774        H  0.50349551  0.28375378  0.18297687     0.43800
C775        C  0.79799866  0.04075457  0.99442551     0.00070
C776        C  0.82678876  0.04566874  0.95818923    -0.11810
C777        C  0.85418880  0.08085712  0.95563111     0.02300
C778        C  0.85385031  0.11191184  0.99032378    -0.00020
C779        C  0.82376521  0.10827062  0.02552328    -0.11750
C780        C  0.79616207  0.07290729  0.02811919     0.02190
H781        H  0.82821053  0.02143683  0.93196185     0.15170
H782        H  0.82371120  0.13171534  0.05264368     0.15170
C783        C  0.76982680  0.06843155  0.06816112     0.36820
C784        C  0.88224040  0.08450928  0.91680294     0.36730
N785        N  0.74928979  0.06499485  0.10072759    -0.43520
N786        N  0.90447090  0.08750577  0.88550181    -0.43520
C787        C  0.64928462  0.38590036  0.99757668     0.00070
C788        C  0.65229094  0.40975350  0.95694903    -0.11810
C789        C  0.68019892  0.44457480  0.95430331     0.02300
C790        C  0.70509989  0.45694261  0.99329233    -0.00020
C791        C  0.70308220  0.43226665  0.03373692    -0.11750
C792        C  0.67546571  0.39684830  0.03603641     0.02190
H793        H  0.63238536  0.40127785  0.92718727     0.15170
H794        H  0.72182225  0.44166363  0.06396164     0.15170
C795        C  0.67242426  0.37375062  0.07884290     0.36820
C796        C  0.68311998  0.46654428  0.91076061     0.36730
N797        N  0.66966483  0.35511791  0.11308570    -0.43520
N798        N  0.68526275  0.48323971  0.87528907    -0.43520
C799        C  0.85824946  0.38933009  0.00063409     0.00070
C800        C  0.86439462  0.42243943  0.03197899    -0.11810
C801        C  0.83609378  0.45688606  0.03299823     0.02300
C802        C  0.80127899  0.46006383  0.00059683    -0.00020
C803        C  0.79538259  0.42685114  0.96876744    -0.11750
C804        C  0.82267082  0.39117600  0.96941414     0.02190
H805        H  0.89140873  0.42109436  0.05643332     0.15170
H806        H  0.77020031  0.42917315  0.94240388     0.15170
C807        C  0.81472247  0.35803807  0.93624411     0.36820
C808        C  0.84405919  0.48818671  0.06818530     0.36730
N809        N  0.80816452  0.33140289  0.90979012    -0.43520
N810        N  0.85150028  0.01266551  0.09677470    -0.43520
C811        C  0.70205218  0.03712837  0.99392496     0.00070
C812        C  0.67335768  0.04122053  0.03032125    -0.11810
C813        C  0.64547935  0.07591012  0.03286265     0.02300
C814        C  0.64544085  0.10749413  0.99823162    -0.00020
C815        C  0.67438605  0.10403572  0.96200667    -0.11750
C816        C  0.70222250  0.06895272  0.95923726     0.02190
H817        H  0.67295819  0.01720384  0.05724765     0.15170
H818        H  0.67385708  0.12777792  0.93476326     0.15170
C819        C  0.72840757  0.06521929  0.91910993     0.36820
C820        C  0.61761348  0.07877705  0.07187437     0.36730
N821        N  0.74908453  0.06230101  0.88664868    -0.43520
N822        N  0.59540192  0.08119864  0.10319799    -0.43520
C823        C  0.80317946  0.25323393  0.22330535     0.00070
C824        C  0.80616352  0.28762375  0.19168761    -0.11810
C825        C  0.83595852  0.28741464  0.15650651     0.02300
C826        C  0.86553605  0.25390900  0.15389756    -0.00020
C827        C  0.86858476  0.22460037  0.19041359    -0.11750
C828        C  0.83896496  0.22496002  0.22607380     0.02190
H829        H  0.78182245  0.31235663  0.19129866     0.15170
H830        H  0.89451200  0.20144954  0.19123826     0.15170
C831        C  0.84943299  0.19912238  0.26599473     0.36820
C832        C  0.83551687  0.32212623  0.12393392     0.36730
N833        N  0.85881621  0.17855037  0.29785669    -0.43520
N834        N  0.83481712  0.35043644  0.09840095    -0.43520
C835        C  0.65292599  0.23777590  0.14766328     0.00070
C836        C  0.64452824  0.23391967  0.19496807    -0.11810
C837        C  0.67792395  0.23614742  0.22853091     0.02300
C838        C  0.72150994  0.24213227  0.21515736    -0.00020
C839        C  0.72914578  0.23817938  0.16742125    -0.11750
C840        C  0.69631381  0.23957507  0.13425282     0.02190
H841        H  0.61151878  0.23083926  0.20616196     0.15170
H842        H  0.76107559  0.23388684  0.15433215     0.15170
C843        C  0.70929101  0.24472188  0.08698839     0.36820
C844        C  0.66563396  0.23447448  0.27612454     0.36730
N845        N  0.72000700  0.24970226  0.04944298    -0.43520
N846        N  0.65498563  0.23321928  0.31400377    -0.43520
C847        C  0.75686432  0.35868424  0.34232103     0.00070
C848        C  0.72237393  0.35351140  0.31104920    -0.11810
C849        C  0.72378228  0.32272685  0.27654656     0.02300
C850        C  0.75839134  0.29276942  0.27673654    -0.00020
C851        C  0.79520633  0.30276568  0.30476945    -0.11750
C852        C  0.79503539  0.33605607  0.33591566     0.02190
H853        H  0.69471964  0.37451145  0.31284491     0.15170
H854        H  0.82403002  0.28338767  0.30354910     0.15170
C855        C  0.83530884  0.34915960  0.35740771     0.36820
C856        C  0.69136128  0.32672741  0.24047442     0.36730
N857        N  0.86794091  0.36098727  0.37271238    -0.43520
N858        N  0.66478013  0.33166929  0.21230146    -0.43520
C859        C  0.75692603  0.14389741  0.35216701     0.00070
C860        C  0.75834615  0.13549846  0.30472397    -0.11810
C861        C  0.75925585  0.16830103  0.27174621     0.02300
C862        C  0.75918189  0.21162801  0.28559231    -0.00020
C863        C  0.75485276  0.21911988  0.33336192    -0.11750
C864        C  0.75503534  0.18666667  0.36610469     0.02190
H865        H  0.75909826  0.10293901  0.29298002     0.15170
H866        H  0.74981104  0.25051255  0.34663865     0.15170
C867        C  0.75237587  0.19925109  0.41373873     0.36820
C868        C  0.76144387  0.15589200  0.22411694     0.36730
N869        N  0.75033237  0.20969097  0.45171343    -0.43520
N870        N  0.76328999  0.14520408  0.18621184    -0.43520
C871        C  0.89369599  0.34991838  0.49928486     0.00070
C872        C  0.88661876  0.31727214  0.46768806    -0.11810
C873        C  0.91702334  0.28528090  0.46188204     0.02300
C874        C  0.95418366  0.28290357  0.49119584    -0.00020
C875        C  0.96065248  0.31492882  0.52414947    -0.11750
C876        C  0.93148599  0.34885302  0.52753248     0.02190
H877        H  0.85725862  0.31706129  0.44669957     0.15170
H878        H  0.98762092  0.31274462  0.54846605     0.15170
C879        C  0.93964161  0.38032889  0.56244929     0.36820
C880        C  0.90893193  0.25566678  0.42499141     0.36730
N881        N  0.94650215  0.40526677  0.59070216    -0.43520
N882        N  0.90163542  0.23263763  0.39497140    -0.43520
C883        C  0.61371733  0.13840799  0.49681338     0.00070
C884        C  0.58635449  0.14449754  0.53403781    -0.11810
C885        C  0.55645709  0.17804815  0.53364686     0.02300
C886        C  0.55300096  0.20533217  0.49492517    -0.00020
C887        C  0.58031568  0.19879252  0.45777281    -0.11750
C888        C  0.61008364  0.16553571  0.45820643     0.02190
H889        H  0.58931684  0.12385505  0.56398178     0.15170
H890        H  0.57832180  0.21991579  0.42815007     0.15170
C891        C  0.63548721  0.15891674  0.41789945     0.36820
C892        C  0.53183934  0.18542901  0.57432489     0.36730
N893        N  0.65535918  0.15326428  0.38532591    -0.43520
N894        N  0.51228735  0.19141607  0.60707384    -0.43520
C895        C  0.61231519  0.35119056  0.49211440     0.00070
C896        C  0.58466278  0.34418794  0.45389537    -0.11810
C897        C  0.55438988  0.31087763  0.45422067     0.02300
C898        C  0.55121020  0.28462179  0.49358851    -0.00020
C899        C  0.57775039  0.29291630  0.53225775    -0.11750
C900        C  0.60787357  0.32591554  0.53186582     0.02190
H901        H  0.58762633  0.36390374  0.42338069     0.15170
H902        H  0.57542873  0.27291680  0.56265631     0.15170
C903        C  0.63314378  0.33404456  0.57313127     0.36820
C904        C  0.52864071  0.30281532  0.41319518     0.36730
N905        N  0.65300918  0.34101439  0.60637646    -0.43520
N906        N  0.50795693  0.29623042  0.38034183    -0.43520
C907        C  0.95658053  0.20303569  0.49774595     0.00070
C908        C  0.92693721  0.20087374  0.53360326    -0.11810
C909        C  0.89589293  0.16874575  0.53539866     0.02300
C910        C  0.89477572  0.13705899  0.50150866    -0.00020
C911        C  0.92579016  0.13766925  0.46703195    -0.11750
C912        C  0.95601264  0.17072702  0.46425670     0.02190
H913        H  0.92688831  0.22563657  0.55932816     0.15170
H914        H  0.92481626  0.11349435  0.44066184     0.15170
C915        C  0.98230507  0.17308574  0.42399664     0.36820
C916        C  0.86557352  0.16917691  0.57234412     0.36730
N917        N  0.00266105  0.17480638  0.39115943    -0.43520
N918        N  0.84136338  0.16990283  0.60202019    -0.43520
C919        C  0.78756655  0.24025994  0.77952639     0.00070
C920        C  0.81945162  0.27264636  0.77867559    -0.11810
C921        C  0.85253177  0.27520764  0.81209532     0.02300
C922        C  0.85412900  0.24611673  0.84900381    -0.00020
C923        C  0.82340201  0.21379751  0.85082683    -0.11750
C924        C  0.79093438  0.21009843  0.81675085     0.02190
H925        H  0.81851590  0.29774510  0.75327253     0.15170
H926        H  0.82511585  0.19086882  0.87889278     0.15170
C927        C  0.76120141  0.17510784  0.82206226     0.36820
C928        C  0.88332892  0.30955058  0.80884813     0.36730
N929        N  0.73801541  0.14670804  0.82707243    -0.43520
N930        N  0.90793764  0.33706100  0.80603999    -0.43520
C931        C  0.70769036  0.24359160  0.77964467     0.00070
C932        C  0.71144283  0.27356719  0.81594645    -0.11810
C933        C  0.68174534  0.27585560  0.85116357     0.02300
C934        C  0.64496330  0.24988729  0.84975786    -0.00020
C935        C  0.64010731  0.22025227  0.81461056    -0.11750
C936        C  0.67162430  0.21496818  0.78144012     0.02190
H937        H  0.73843596  0.29552024  0.81700742     0.15170
H938        H  0.61254339  0.19890131  0.81500099     0.15170
C939        C  0.66642999  0.17686238  0.75471623     0.36820
C940        C  0.68999857  0.30531181  0.88810768     0.36730
N941        N  0.66090835  0.14549784  0.73492556    -0.43520
N942        N  0.69748486  0.32852327  0.91787487    -0.43520
C943        C  0.75624571  0.34674450  0.64377144     0.00070
C944        C  0.72636229  0.35011296  0.67877125    -0.11810
C945        C  0.72050936  0.31765674  0.71122282     0.02300
C946        C  0.74889670  0.28162433  0.71272312    -0.00020
C947        C  0.78054204  0.28019202  0.67796677    -0.11750
C948        C  0.78327553  0.31104343  0.64315217     0.02190
H949        H  0.70500670  0.37744434  0.67873676     0.15170
H950        H  0.80287087  0.25373481  0.67731523     0.15170
C951        C  0.81442026  0.30529709  0.60757495     0.36820
C952        C  0.68240441  0.32268827  0.73819054     0.36730
N953        N  0.83924275  0.30008375  0.57904463    -0.43520
N954        N  0.65119670  0.32831301  0.75842422    -0.43520
C955        C  0.74534658  0.20260582  0.71296872     0.00070
C956        C  0.77734466  0.17041754  0.71609918    -0.11810
C957        C  0.77813632  0.13645748  0.68553030     0.02300
C958        C  0.74853530  0.13500643  0.64826377    -0.00020
C959        C  0.71802440  0.16739513  0.64276463    -0.11750
C960        C  0.71570858  0.20051961  0.67441975     0.02190
H961        H  0.80316128  0.17136995  0.74155826     0.15170
H962        H  0.69522668  0.16639084  0.61383914     0.15170
C963        C  0.68121197  0.23082209  0.66681423     0.36820
C964        C  0.81158903  0.10484547  0.69167761     0.36730
N965        N  0.65297532  0.25427576  0.66024713    -0.43520
N966        N  0.83848720  0.07968406  0.69683757    -0.43520
C967        C  0.74660879  0.74177409  0.74605924    -0.02260
O968        O  0.63197454  0.56565709  0.50006203    -0.75070
O969        O  0.68615506  0.61489884  0.49697295    -0.53980
C970        C  0.64608952  0.60407765  0.49854511     0.78660
O971        O  0.75574505  0.91924344  0.62370646    -0.59670
O972        O  0.75698608  0.87079092  0.56572446    -0.52700
C973        C  0.75703736  0.88099031  0.60857611     0.70670
O974        O  0.75174288  0.56250864  0.62753407    -0.74230
O975        O  0.74978577  0.61337759  0.57107197    -0.54790
C976        C  0.75010073  0.60137121  0.61340247     0.76680
O977        O  0.63131943  0.92363338  0.48920320    -0.59370
O978        O  0.68522578  0.87407172  0.49336957    -0.52490
C979        C  0.64515422  0.88516213  0.49081762     0.73270
Zr980      Zr  0.66266258  0.99448388  0.49477524     2.54710
O981        O  0.60872201  0.98986663  0.55415235    -0.79940
O982        O  0.60908554  0.99830094  0.43216881    -0.93360
Zr983      Zr  0.75311457  0.99165098  0.59377936     2.64680
O984        O  0.69520548  0.48885811  0.64895768    -0.98310
O985        O  0.80843318  0.99063336  0.65464464    -0.80370
O986        O  0.70734610  0.53410434  0.54603969    -0.83730
O987        O  0.70731052  0.95174171  0.54379591    -2.18440
O988        O  0.75154245  0.92932568  0.36509729    -0.67120
O989        O  0.75579153  0.87760331  0.42071154    -0.51680
C990        C  0.75418877  0.89054990  0.37851105     0.71650
O991        O  0.87513878  0.56497623  0.49753480    -0.60030
O992        O  0.82170245  0.61439402  0.50379251    -0.52000
C993        C  0.86161678  0.60335163  0.50099670     0.73450
O994        O  0.87524015  0.92290130  0.50387602    -0.71420
O995        O  0.82120297  0.87392500  0.49627498    -0.50100
C996        C  0.86129814  0.88450516  0.50059594     0.74840
O997        O  0.75556588  0.56987548  0.36958626    -0.66750
O998        O  0.75596269  0.61632237  0.42886787    -0.53950
C999        C  0.75620696  0.60776567  0.38573407     0.73220
Zr1000     Zr  0.75351640  0.99814038  0.40107937     2.77540
O1001       O  0.81079420  0.49955336  0.34509724    -0.97500
O1002       O  0.69578695  0.50172514  0.34287753    -0.78320
Zr1003     Zr  0.84414009  0.99409801  0.50008881     2.70070
O1004       O  0.89827422  0.99118696  0.44086093    -0.79570
O1005       O  0.89736161  0.99805634  0.56283512    -0.98650
Zr1006     Zr  0.75367600  0.57561351  0.49955104     2.21500
Zr1007     Zr  0.75349214  0.91276647  0.49497779     2.11130
O1008       O  0.79942174  0.95505253  0.44849024    -2.47340
O1009       O  0.79988372  0.53715144  0.45100010    -0.79360
O1010       O  0.70762351  0.95483858  0.44600666    -0.71560
O1011       O  0.79959783  0.53400277  0.54891275    -2.32510
O1012       O  0.70727096  0.53745959  0.44822696    -2.28720
O1013       O  0.79909321  0.95170504  0.54650978    -0.73320
H1014       H  0.68964578  0.93278348  0.56164571     0.78680
H1015       H  0.81724373  0.55181069  0.56868782     0.79770
H1016       H  0.81729514  0.93748279  0.42965064     0.81990
H1017       H  0.68977717  0.55649223  0.42943285     0.79600
H1018       H  0.83442549  0.50249747  0.64009996     0.42640
H1019       H  0.88949511  0.97463387  0.58393704     0.41610
H1020       H  0.88591913  0.50839353  0.41512262     0.41280
H1021       H  0.82766256  0.97335271  0.35120423     0.39220
H1022       H  0.67220297  0.98439545  0.35574638     0.42350
H1023       H  0.61510035  0.52537509  0.41601478     0.37130
H1024       H  0.62182288  0.50512005  0.58066821     0.43250
H1025       H  0.67890957  0.96266556  0.64143519     0.39670
H1026       H  0.79583764  0.99450591  0.31515013     0.44580
H1027       H  0.58138877  0.00321339  0.44758510     0.43310
H1028       H  0.70997172  0.98244106  0.67878952     0.43440
H1029       H  0.92470919  0.98880187  0.54910925     0.43800
C1030       C  0.98151145  0.74347319  0.49274764     0.00790
C1031       C  0.52577334  0.74443464  0.49379641     0.00790
C1032       C  0.76016917  0.74961615  0.25031907    -0.02260
C1033       C  0.72955477  0.99799435  0.99333809     0.00790
C1034       C  0.77378963  0.99955111  0.99734886     0.00790
O1035       O  0.57211645  0.75129226  0.87082537    -0.75070
O1036       O  0.62442756  0.75087599  0.92751186    -0.53980
C1037       C  0.61177987  0.75126779  0.88511064     0.78660
O1038       O  0.93090726  0.86731415  0.00337605    -0.59670
O1039       O  0.87872497  0.81625135  0.99745349    -0.52700
C1040       C  0.89120456  0.85519790  0.00023667     0.70670
O1041       O  0.57618278  0.86632101  0.99891497    -0.74230
O1042       O  0.62684644  0.81355920  0.00124374    -0.54790
C1043       C  0.61542968  0.85289969  0.99975518     0.76680
O1044       O  0.92749751  0.75002552  0.87050243    -0.59370
O1045       O  0.87775991  0.74684513  0.92731211    -0.52490
C1046       C  0.88861222  0.74786559  0.88476713     0.73270
Zr1047     Zr  0.50017839  0.75204007  0.90308968     2.54710
O1048       O  0.49899663  0.81266851  0.85066684    -0.79940
O1049       O  0.99798131  0.70100963  0.84057338    -0.93360
Zr1050     Zr  0.50337753  0.83709552  0.00201475     2.64680
O1051       O  0.50215497  0.89306867  0.94372176    -0.98310
O1052       O  0.00613005  0.88757774  0.06500805    -0.80370
O1053       O  0.54394230  0.79493094  0.95156717    -0.83730
O1054       O  0.95936437  0.79553966  0.95201518    -2.18440
O1055       O  0.92712940  0.63185744  0.98970563    -0.67120
O1056       O  0.87682679  0.68373134  0.99972177    -0.51680
C1057       C  0.88794481  0.64487928  0.99324908     0.71650
O1058       O  0.57787342  0.74007686  0.12888620    -0.60030
O1059       O  0.62537190  0.74212107  0.07066748    -0.52000
C1060       C  0.61640063  0.73997026  0.11353207     0.73450
O1061       O  0.93637597  0.74743934  0.12997529    -0.71420
O1062       O  0.88313868  0.75325768  0.07447669    -0.50100
C1063       C  0.89685380  0.75144054  0.11677238     0.74840
O1064       O  0.57283850  0.62907342  0.99881604    -0.66750
O1065       O  0.62489846  0.68040245  0.99506715    -0.53950
C1066       C  0.61243394  0.64140357  0.99722939     0.73220
Zr1067     Zr  0.50060280  0.65965935  0.99606887     2.77540
O1068       O  0.49810923  0.60395791  0.05453895    -0.97500
O1069       O  0.50186104  0.60866036  0.93368931    -0.78320
Zr1070     Zr  0.50579489  0.74455326  0.09496699     2.70070
O1071       O  0.50404279  0.68506905  0.14885624    -0.79570
O1072       O  0.51193020  0.79845991  0.15432299    -0.98650
Zr1073     Zr  0.58568091  0.74738451  0.99845538     2.21500
Zr1074     Zr  0.91837729  0.74948460  0.00006759     2.11130
O1075       O  0.96068079  0.70196776  0.04698263    -2.47340
O1076       O  0.54542618  0.70068963  0.04577028    -0.79360
O1077       O  0.95834925  0.70618213  0.94939471    -0.71560
O1078       O  0.54663629  0.79132633  0.04904968    -2.32510
O1079       O  0.54232090  0.70433014  0.94845911    -2.28720
O1080       O  0.96246339  0.79192821  0.04986800    -0.73320
H1081       H  0.94063882  0.81358559  0.93340818     0.78680
H1082       H  0.56604000  0.80774582  0.06840624     0.79770
H1083       H  0.94242564  0.68425531  0.06560680     0.81990
H1084       H  0.56001753  0.68720045  0.92897553     0.79600
H1085       H  0.52764798  0.87570855  0.08729887     0.42640
H1086       H  0.98794014  0.81841080  0.14732725     0.41610
H1087       H  0.52050412  0.66236849  0.13377176     0.41280
H1088       H  0.97096831  0.60895536  0.07096353     0.39220
H1089       H  0.99217765  0.62505319  0.90614441     0.42350
H1090       H  0.52289283  0.68197997  0.84679502     0.37130
H1091       H  0.52099227  0.83234655  0.86360004     0.43250
H1092       H  0.97666586  0.88669804  0.92374643     0.39670
H1093       H  0.49270525  0.57759326  0.03700082     0.44580
H1094       H  0.00606455  0.71760586  0.81300926     0.43310
H1095       H  0.49406267  0.91898666  0.96050011     0.43440
H1096       H  0.50349556  0.78375324  0.18297701     0.43800
C1097       C  0.79799881  0.54075442  0.99442549     0.00070
C1098       C  0.82678903  0.54566849  0.95818932    -0.11810
C1099       C  0.85418907  0.58085686  0.95563119     0.02300
C1100       C  0.85385044  0.61191168  0.99032375    -0.00020
C1101       C  0.82376525  0.60827054  0.02552316    -0.11750
C1102       C  0.79616211  0.57290720  0.02811909     0.02190
H1103       H  0.82821088  0.52143652  0.93196201     0.15170
H1104       H  0.82371114  0.63171533  0.05264348     0.15170
C1105       C  0.76982666  0.56843159  0.06816089     0.36820
C1106       C  0.88224081  0.58450888  0.91680312     0.36730
N1107       N  0.74928950  0.56499500  0.10072727    -0.43520
N1108       N  0.90447142  0.58750524  0.88550207    -0.43520
C1109       C  0.64928450  0.88590047  0.99757731     0.00070
C1110       C  0.65229163  0.90975295  0.95694930    -0.11810
C1111       C  0.68019959  0.94457427  0.95430359     0.02300
C1112       C  0.70509982  0.95694267  0.99329290    -0.00020
C1113       C  0.70308127  0.93226742  0.03373791    -0.11750
C1114       C  0.67546465  0.89684917  0.03603749     0.02190
H1115       H  0.63238665  0.90127682  0.92718726     0.15170
H1116       H  0.72182067  0.94166494  0.06396288     0.15170
C1117       C  0.67242196  0.87375251  0.07884449     0.36820
C1118       C  0.68312141  0.96654315  0.91076061     0.36730
N1119       N  0.66966146  0.85512070  0.11308774    -0.43520
N1120       N  0.68526481  0.98323809  0.87528887    -0.43520
C1121       C  0.85824938  0.88933006  0.00063432     0.00070
C1122       C  0.86439491  0.92243971  0.03197877    -0.11810
C1123       C  0.83609413  0.95688639  0.03299799     0.02300
C1124       C  0.80127900  0.96006394  0.00059696    -0.00020
C1125       C  0.79538231  0.92685098  0.96876793    -0.11750
C1126       C  0.82267045  0.89117576  0.96941473     0.02190
H1127       H  0.89140928  0.92109484  0.05643279     0.15170
H1128       H  0.77019987  0.92917281  0.94240455     0.15170
C1129       C  0.81472172  0.85803755  0.93624512     0.36820
C1130       C  0.84406001  0.98818733  0.06818464     0.36730
N1131       N  0.80816348  0.83140213  0.90979150    -0.43520
N1132       N  0.85149903  0.51266466  0.09677570    -0.43520
C1133       C  0.70205229  0.53712833  0.99392463     0.00070
C1134       C  0.67335763  0.54122034  0.03032078    -0.11810
C1135       C  0.64547933  0.57590995  0.03286223     0.02300
C1136       C  0.64544102  0.60749411  0.99823136    -0.00020
C1137       C  0.67438639  0.60403585  0.96200655    -0.11750
C1138       C  0.70222282  0.56895284  0.95923710     0.02190
H1139       H  0.67295799  0.51720351  0.05724704     0.15170
H1140       H  0.67385756  0.62777816  0.93476326     0.15170
C1141       C  0.72840804  0.56521952  0.91910988     0.36820
C1142       C  0.61761329  0.57877671  0.07187383     0.36730
N1143       N  0.74908512  0.56230131  0.88664870    -0.43520
N1144       N  0.59540161  0.58119817  0.10319736    -0.43520
C1145       C  0.80317995  0.75323391  0.22330562     0.00070
C1146       C  0.80616488  0.78762429  0.19168870    -0.11810
C1147       C  0.83595995  0.78741516  0.15650764     0.02300
C1148       C  0.86553647  0.75390875  0.15389778    -0.00020
C1149       C  0.86858454  0.72459944  0.19041320    -0.11750
C1150       C  0.83896489  0.72495925  0.22607353     0.02190
H1151       H  0.78182441  0.81235772  0.19130024     0.15170
H1152       H  0.89451125  0.70144803  0.19123735     0.15170
C1153       C  0.84943267  0.69912108  0.26599412     0.36820
C1154       C  0.83551957  0.82212759  0.12393611     0.36730
N1155       N  0.85881575  0.67854863  0.29785579    -0.43520
N1156       N  0.83482099  0.85043850  0.09840406    -0.43520
C1157       C  0.65292638  0.73777683  0.14766291     0.00070
C1158       C  0.64452877  0.73391897  0.19496758    -0.11810
C1159       C  0.67792442  0.73614680  0.22853047     0.02300
C1160       C  0.72151034  0.74213277  0.21515708    -0.00020
C1161       C  0.72914616  0.73818158  0.16742078    -0.11750
C1162       C  0.69631412  0.73957800  0.13425248     0.02190
H1163       H  0.61151940  0.73083726  0.20616138     0.15170
H1164       H  0.76107594  0.73388999  0.15433133     0.15170
C1165       C  0.70929106  0.74472811  0.08698835     0.36820
C1166       C  0.66563436  0.73447264  0.27612404     0.36730
N1167       N  0.72000677  0.74971123  0.04944324    -0.43520
N1168       N  0.65498595  0.73321645  0.31400321    -0.43520
C1169       C  0.75686441  0.85868421  0.34232136     0.00070
C1170       C  0.72237374  0.85351103  0.31104997    -0.11810
C1171       C  0.72378203  0.82272655  0.27654726     0.02300
C1172       C  0.75839145  0.79276951  0.27673669    -0.00020
C1173       C  0.79520657  0.80276604  0.30476931    -0.11750
C1174       C  0.79503561  0.83605638  0.33591558     0.02190
H1175       H  0.69471925  0.87451078  0.31284609     0.15170
H1176       H  0.82403041  0.78338825  0.30354870     0.15170
C1177       C  0.83530909  0.84916011  0.35740742     0.36820
C1178       C  0.69136038  0.82672675  0.24047573     0.36730
N1179       N  0.86794116  0.86098791  0.37271196    -0.43520
N1180       N  0.66477870  0.83166840  0.21230330    -0.43520
C1181       C  0.75692595  0.64389738  0.35216675     0.00070
C1182       C  0.75834548  0.63549851  0.30472364    -0.11810
C1183       C  0.75925528  0.66830116  0.27174597     0.02300
C1184       C  0.75918199  0.71162810  0.28559222    -0.00020
C1185       C  0.75485343  0.71911990  0.33336191    -0.11750
C1186       C  0.75503593  0.68666662  0.36610458     0.02190
H1187       H  0.75909705  0.60293907  0.29297958     0.15170
H1188       H  0.74981225  0.75051257  0.34663884     0.15170
C1189       C  0.75237716  0.69925100  0.41373870     0.36820
C1190       C  0.76144263  0.65589229  0.22411658     0.36730
N1191       N  0.75033423  0.70969084  0.45171346    -0.43520
N1192       N  0.76328816  0.64520464  0.18621135    -0.43520
C1193       C  0.89369606  0.84991843  0.49928482     0.00070
C1194       C  0.88661896  0.81727236  0.46768779    -0.11810
C1195       C  0.91702354  0.78528110  0.46188180     0.02300
C1196       C  0.95418373  0.78290364  0.49119577    -0.00020
C1197       C  0.96065244  0.81492877  0.52414956    -0.11750
C1198       C  0.93148596  0.84885296  0.52753260     0.02190
H1199       H  0.85725893  0.81706163  0.44669913     0.15170
H1200       H  0.98762080  0.81274446  0.54846623     0.15170
C1201       C  0.93964143  0.88032867  0.56244960     0.36820
C1202       C  0.90893226  0.75566708  0.42499103     0.36730
N1203       N  0.94650185  0.90526643  0.59070262    -0.43520
N1204       N  0.90163587  0.73263801  0.39497093    -0.43520
C1205       C  0.61371728  0.63840796  0.49681340     0.00070
C1206       C  0.58635434  0.64449750  0.53403776    -0.11810
C1207       C  0.55645694  0.67804810  0.53364672     0.02300
C1208       C  0.55300091  0.70533212  0.49492502    -0.00020
C1209       C  0.58031571  0.69879248  0.45777274    -0.11750
C1210       C  0.61008369  0.66553567  0.45820645     0.02190
H1211       H  0.58931662  0.62385499  0.56398172     0.15170
H1212       H  0.57832192  0.71991575  0.42815000     0.15170
C1213       C  0.63548739  0.65891670  0.41789957     0.36820
C1214       C  0.53183908  0.68542897  0.57432467     0.36730
N1215       N  0.65535949  0.65326419  0.38532614    -0.43520
N1216       N  0.51228700  0.69141604  0.60707356    -0.43520
C1217       C  0.61231523  0.85119055  0.49211447     0.00070
C1218       C  0.58466290  0.84418794  0.45389538    -0.11810
C1219       C  0.55438999  0.81087764  0.45422057     0.02300
C1220       C  0.55121022  0.78462176  0.49358839    -0.00020
C1221       C  0.57775035  0.79291624  0.53225769    -0.11750
C1222       C  0.60787354  0.82591548  0.53186586     0.02190
H1223       H  0.58762650  0.86390377  0.42338072     0.15170
H1224       H  0.57542863  0.77291672  0.56265622     0.15170
C1225       C  0.63314368  0.83404445  0.57313135     0.36820
C1226       C  0.52864093  0.80281534  0.41319501     0.36730
N1227       N  0.65300902  0.84101423  0.60637659    -0.43520
N1228       N  0.50795725  0.79623046  0.38034159    -0.43520
C1229       C  0.95658048  0.70303575  0.49774579     0.00070
C1230       C  0.92693708  0.70087380  0.53360303    -0.11810
C1231       C  0.89589281  0.66874581  0.53539837     0.02300
C1232       C  0.89477566  0.63705903  0.50150839    -0.00020
C1233       C  0.92579016  0.63766930  0.46703172    -0.11750
C1234       C  0.95601265  0.67072709  0.46425654     0.02190
H1235       H  0.92688813  0.72563663  0.55932793     0.15170
H1236       H  0.92481632  0.61349440  0.44066162     0.15170
C1237       C  0.98230517  0.67308579  0.42399656     0.36820
C1238       C  0.86557334  0.66917697  0.57234378     0.36730
N1239       N  0.00266124  0.67480641  0.39115940    -0.43520
N1240       N  0.84136316  0.66990290  0.60201982    -0.43520
C1241       C  0.78756641  0.74025985  0.77952635     0.00070
C1242       C  0.81945134  0.77264640  0.77867570    -0.11810
C1243       C  0.85253145  0.77520773  0.81209548     0.02300
C1244       C  0.85412876  0.74611674  0.84900389    -0.00020
C1245       C  0.82340187  0.71379740  0.85082679    -0.11750
C1246       C  0.79093429  0.71009829  0.81675076     0.02190
H1247       H  0.81851554  0.79774523  0.75327274     0.15170
H1248       H  0.82511577  0.69086866  0.87889269     0.15170
C1249       C  0.76120142  0.67510760  0.82206205     0.36820
C1250       C  0.88332847  0.80955079  0.80884842     0.36730
N1251       N  0.73801550  0.64670773  0.82707214    -0.43520
N1252       N  0.90793711  0.83706130  0.80604039    -0.43520
C1253       C  0.70769024  0.74359140  0.77964452     0.00070
C1254       C  0.71144259  0.77356716  0.81594614    -0.11810
C1255       C  0.68174508  0.77585561  0.85116321     0.02300
C1256       C  0.64496310  0.74988724  0.84975758    -0.00020
C1257       C  0.64010720  0.72025207  0.81461041    -0.11750
C1258       C  0.67162425  0.71496792  0.78144003     0.02190
H1259       H  0.73843567  0.79552028  0.81700704     0.15170
H1260       H  0.61254333  0.69890105  0.81500090     0.15170
C1261       C  0.66643008  0.67686203  0.75471626     0.36820
C1262       C  0.68999828  0.80531189  0.88810727     0.36730
N1263       N  0.66090857  0.64549743  0.73492567    -0.43520
N1264       N  0.69748456  0.82852337  0.91787444    -0.43520
C1265       C  0.75624572  0.84674454  0.64377164     0.00070
C1266       C  0.72636204  0.85011278  0.67877122    -0.11810
C1267       C  0.72050901  0.81765643  0.71122261     0.02300
C1268       C  0.74889655  0.78162416  0.71272304    -0.00020
C1269       C  0.78054206  0.78019203  0.67796688    -0.11750
C1270       C  0.78327567  0.81104357  0.64315244     0.02190
H1271       H  0.70500631  0.87744406  0.67873664     0.15170
H1272       H  0.80287099  0.75373490  0.67731541     0.15170
C1273       C  0.81442071  0.80529750  0.60757546     0.36820
C1274       C  0.68240367  0.82268753  0.73818983     0.36730
N1275       N  0.83924347  0.80008438  0.57904536    -0.43520
N1276       N  0.65119565  0.82831186  0.75842311    -0.43520
C1277       C  0.74534655  0.70260568  0.71296858     0.00070
C1278       C  0.77734473  0.67041750  0.71609899    -0.11810
C1279       C  0.77813645  0.63645745  0.68553008     0.02300
C1280       C  0.74853540  0.63500634  0.64826360    -0.00020
C1281       C  0.71802440  0.66739495  0.64276452    -0.11750
C1282       C  0.71570852  0.70051941  0.67441965     0.02190
H1283       H  0.80316137  0.67136997  0.74155805     0.15170
H1284       H  0.69522665  0.66639061  0.61383906     0.15170
C1285       C  0.68121181  0.73082178  0.66681417     0.36820
C1286       C  0.81158925  0.60484551  0.69167733     0.36730
N1287       N  0.65297506  0.75427532  0.66024705    -0.43520
N1288       N  0.83848748  0.57968415  0.69683724    -0.43520
loop_ 
_geom_bond_atom_site_label_1 
_geom_bond_atom_site_label_2 
_geom_bond_distance 
_geom_bond_site_symmetry_2 
_ccdc_geom_bond_type 
C1          C275   1.581       .  S
C1          C287   1.571       .  S
C1          C302   1.582       .  S
C1          C311   1.571       .  S
O2            C4   1.287       .  A
O2         Zr336   2.444   1_545  S
O3            C4   1.288       .  A
O3          Zr40   2.431       .  S
C4          C239   1.476       .  S
O5            C7   1.287       .  A
O5          Zr17   2.436       .  S
O6            C7   1.289       .  A
O6          Zr41   2.436       .  S
C7          C299   1.482       .  S
O8           C10   1.289       .  A
O8         Zr339   2.447   1_545  S
O9           C10   1.284       .  A
O9          Zr40   2.409       .  S
C10         C314   1.474       .  S
O11          C13   1.286       .  A
O11         Zr14   2.438       .  S
O12          C13   1.290       .  A
O12         Zr41   2.439       .  S
C13         C251   1.476       .  S
Zr14        O324   2.444       .  S
Zr14         O15   2.434       .  S
Zr14         O16   2.436       .  S
Zr14         O21   2.374       .  S
Zr14         O44   2.374       .  S
Zr14        O342   2.371       .  S
Zr14        O368   2.372       .  S
O15         H380   0.990       .  S
O16          H61   0.990       .  S
O16         H379   0.990       .  S
Zr17        O330   2.447       .  S
Zr17         O19   2.433       .  S
Zr17        O340   2.436       .  S
Zr17         O21   2.373       .  S
Zr17         O47   2.372       .  S
Zr17        O342   2.368       .  S
Zr17        O367   2.369       .  S
O18        Zr339   2.436       .  S
O18         H381   0.990       .  S
O18         H384   0.990       .  S
O19         H374   0.990       .  S
O20         Zr40   2.378       .  S
O20        Zr336   2.371   1_545  S
O20        Zr339   2.368   1_545  S
O21         Zr41   2.387       .  S
O21          H48   0.966       .  S
O22          C24   1.282       .  A
O22         Zr34   2.415       .  S
O23          C24   1.289       .  A
O23         Zr41   2.437       .  S
C24         C203   1.464       .  S
O25          C27   1.286       .  A
O25        Zr359   2.431   1_545  S
O26          C27   1.289       .  A
O26         Zr40   2.435       .  S
C27         C266   1.476       .  S
O28          C30   1.288       .  A
O28         Zr37   2.443       .  S
O29          C30   1.289       .  A
O29         Zr41   2.429       .  S
C30         C227   1.484       .  S
O31          C33   1.286       .  A
O31        Zr356   2.433   1_545  S
O32          C33   1.285       .  A
O32         Zr40   2.416       .  S
C33         C215   1.494       .  S
Zr34        O353   2.433       .  S
Zr34        O357   2.436       .  S
Zr34        O358   2.434       .  S
Zr34         O42   2.376       .  S
Zr34         O44   2.375       .  S
Zr34        O365   2.367       .  S
Zr34        O368   2.364       .  S
O35        Zr356   2.436       .  S
O35         H377   0.990       .  S
O35         H382   0.990       .  S
O36        Zr356   2.434   1_545  S
O36         H378   0.990   1_545  S
Zr37        O347   2.431       .  S
Zr37         O38   2.434       .  S
Zr37         O39   2.433       .  S
Zr37         O42   2.368       .  S
Zr37         O47   2.368       .  S
Zr37        O365   2.374       .  S
Zr37        O367   2.372       .  S
O38         H376   0.990       .  S
O39          H53   0.990       .  S
O39          H63   0.990       .  S
Zr40         O43   2.374       .  S
Zr40         O45   2.383       .  S
Zr40         O46   2.379       .  S
Zr41         O42   2.384       .  S
Zr41         O44   2.383       .  S
Zr41         O47   2.381       .  S
O42          H50   0.966       .  S
O43        Zr356   2.367   1_545  S
O43        Zr359   2.374   1_545  S
O45        Zr339   2.369   1_545  S
O45        Zr359   2.372   1_545  S
O45          H49   0.966       .  S
O46        Zr336   2.372   1_545  S
O46        Zr356   2.364   1_545  S
O46          H51   0.966       .  S
H52         O341   0.990   1_545  S
H54         O360   0.990   1_545  S
H55         O357   0.990       .  S
H56         O358   0.990       .  S
H57         O338   0.990   1_545  S
H58         O337   0.990   1_545  S
H59         O340   0.990       .  S
H60         O357   0.990       .  S
H62         O340   0.990       .  S
C64         C230   1.504       .  S
C64         C263   1.497       .  S
C64         C709   1.371       .  D
C65         C242   1.494       .  S
C65         C254   1.491       .  S
C65         C708   1.371   1_455  D
C66         C179   1.566       .  S
C66         C194   1.574       .  S
C66         C206   1.569       .  S
C66         C218   1.571       .  S
C67         C146   1.498       .  S
C67         C489   1.500       .  S
C67          C68   1.373       .  D
C68         C158   1.510   1_556  S
C68         C453   1.501       .  S
O69          C71   1.287       .  A
O69         Zr81   2.438       .  S
O70          C71   1.284       .  A
O70        Zr107   2.412       .  S
C71         C290   1.472       .  S
O72          C74   1.288       .  A
O72        Zr728   2.441       .  S
O73          C74   1.289   1_556  A
O73        Zr108   2.437   1_556  S
C74         C155   1.484       .  S
O75          C77   1.287       .  A
O75         Zr84   2.438   1_556  S
O76          C77   1.290   1_554  A
O76        Zr107   2.444   1_554  S
C77         C143   1.478       .  S
O78          C80   1.285       .  A
O78        Zr725   2.422       .  S
O79          C80   1.289       .  A
O79        Zr108   2.437   1_556  S
C80         C278   1.474       .  S
Zr81        O722   2.422   1_455  S
Zr81         O82   2.434   1_455  S
Zr81        O727   2.436   1_455  S
Zr81         O87   2.363       .  S
Zr81        O113   2.365       .  S
Zr81        O732   2.371   1_455  S
Zr81        O755   2.372   1_455  S
O82         H125   0.990   1_655  S
O83        Zr725   2.436       .  S
O83         H128   0.990       .  S
O83         H768   0.990       .  S
Zr84        O716   2.441   1_455  S
Zr84         O85   2.436   1_554  S
Zr84        O730   2.435       .  S
Zr84         O87   2.370   1_554  S
Zr84        O112   2.373       .  S
Zr84        O732   2.370   1_454  S
Zr84        O758   2.369   1_455  S
O85         H129   0.990   1_455  S
O85         H770   0.990   1_455  S
O86        Zr728   2.435       .  S
O86         H763   0.990       .  S
O87        Zr107   2.379       .  S
O88        Zr108   2.391   1_556  S
O88        Zr725   2.371       .  S
O88        Zr728   2.370   1_556  S
O88         H115   0.966       .  S
O89          C91   1.288       .  A
O89        Zr745   2.441       .  S
O90          C91   1.289       .  A
O90        Zr108   2.438   1_556  S
C91         C134   1.482       .  S
O92          C94   1.284       .  A
O92        Zr104   2.423       .  S
O93          C94   1.284       .  A
O93        Zr107   2.412   1_554  S
C94         C191   1.488       .  S
O95          C97   1.280       .  A
O95        Zr748   2.403       .  S
O96          C97   1.292       .  A
O96        Zr108   2.450       .  S
C97         C182   1.471       .  S
O98         C100   1.288       .  A
O98        Zr101   2.436       .  S
O99         C100   1.289       .  A
O99        Zr107   2.440       .  S
C100        C170   1.479       .  S
Zr101       O733   2.441   1_455  S
Zr101       O102   2.436   1_456  S
Zr101       O103   2.434       .  S
Zr101       O110   2.370   1_556  S
Zr101       O113   2.370       .  S
Zr101       O753   2.371   1_456  S
Zr101       O755   2.364   1_455  S
O102        H127   0.990       .  S
O102        H766   0.990       .  S
O103        H767   0.990   1_455  S
Zr104       O739   2.403   1_455  S
Zr104       O105   2.434       .  S
Zr104       O106   2.435       .  S
Zr104       O110   2.363       .  S
Zr104       O112   2.366       .  S
Zr104       O753   2.373   1_455  S
Zr104       O758   2.374   1_455  S
O105        H121   0.990       .  S
O106        H130   0.990       .  S
O106        H764   0.990   1_455  S
Zr107       O110   2.378   1_556  S
Zr107       O112   2.380   1_556  S
Zr107       O113   2.385       .  S
Zr108       O109   2.388       .  S
Zr108       O111   2.385   1_554  S
Zr108       O114   2.383       .  S
O109       Zr745   2.371   1_554  S
O109       Zr748   2.373       .  S
O109        H117   0.966       .  S
O111       Zr725   2.372       .  S
O111       Zr745   2.364       .  S
O112        H116   0.966       .  S
O113        H118   0.966       .  S
O114       Zr728   2.369       .  S
O114       Zr748   2.374       .  S
H119        O730   0.990       .  S
H120        O750   0.990       .  S
H122        O746   0.990       .  S
H123        O747   0.990       .  S
H124        O727   0.990   1_455  S
H126        O729   0.990       .  S
C131        C390   1.501   1_545  S
C131        C132   1.404       .  A
C131        C136   1.417   1_556  A
C132        C133   1.398       .  A
C132        H137   1.085       .  S
C133        C134   1.411       .  A
C133        C140   1.444       .  S
C134        C135   1.404   1_556  A
C135        C136   1.406       .  A
C135        H138   1.085       .  S
C136        C139   1.443       .  S
C139        N141   1.157       .  T
C140        N142   1.157       .  T
C143        C144   1.400       .  A
C143        C148   1.410   1_556  A
C144        C145   1.399       .  A
C144        H149   1.085       .  S
C145        C146   1.413       .  A
C145        C152   1.442       .  S
C146        C147   1.407   1_556  A
C147        C148   1.407       .  A
C147        H150   1.084       .  S
C148        C151   1.441       .  S
C151        N153   1.156       .  T
C152        N154   1.157       .  T
C155        C156   1.401       .  A
C155        C160   1.412   1_554  A
C156        C157   1.397       .  A
C156        H161   1.086       .  S
C157        C158   1.418       .  A
C157        C164   1.443       .  S
C158        C159   1.411   1_554  A
C159        C160   1.407       .  A
C159        H162   1.082       .  S
C160        C163   1.444       .  S
C163        N165   1.157       .  T
C164        N488   1.157       .  T
N166        C486   1.157   1_545  T
C167        C389   1.500   1_545  S
C167        C168   1.405   1_556  A
C167        C172   1.416       .  A
C168        C169   1.397       .  A
C168        H173   1.085       .  S
C169        C170   1.410   1_554  A
C169        C176   1.445       .  S
C170        C171   1.404       .  A
C171        C172   1.407       .  A
C171        H174   1.085       .  S
C172        C175   1.442       .  S
C175        N177   1.157       .  T
C176        N178   1.157       .  T
C179        C180   1.420       .  A
C179        C184   1.423       .  A
C180        C181   1.394       .  A
C180        H185   1.085       .  S
C181        C182   1.402       .  A
C181        C188   1.441       .  S
C182        C183   1.403       .  A
C183        C184   1.401       .  A
C183        H186   1.085       .  S
C184        C187   1.443       .  S
C187        N189   1.158       .  T
C188        N190   1.156       .  T
C191        C192   1.410       .  A
C191        C196   1.409       .  A
C192        C193   1.407       .  A
C192        H197   1.084       .  S
C193        C194   1.426       .  A
C193        C200   1.444       .  S
C194        C195   1.420       .  A
C195        C196   1.385       .  A
C195        H198   1.077       .  S
C196        C199   1.448       .  S
C199        N201   1.158       .  T
C200        N202   1.157       .  T
C203        C204   1.396       .  A
C203        C208   1.398       .  A
C204        C205   1.402       .  A
C204        H209   1.086       .  S
C205        C206   1.429       .  A
C205        C212   1.439       .  S
C206        C207   1.422       .  A
C207        C208   1.391       .  A
C207        H210   1.084       .  S
C208        C211   1.443       .  S
C211        N213   1.157       .  T
C212        N214   1.157       .  T
C215        C216   1.408       .  A
C215        C220   1.412       .  A
C216        C217   1.405       .  A
C216        H221   1.084       .  S
C217        C218   1.426       .  A
C217        C224   1.445       .  S
C218        C219   1.420       .  A
C219        C220   1.391       .  A
C219        H222   1.078       .  S
C220        C223   1.448       .  S
C223        N225   1.158       .  T
C224        N226   1.157       .  T
C227        C228   1.398       .  A
C227        C232   1.414       .  A
C228        C229   1.394       .  A
C228        H233   1.083       .  S
C229        C230   1.417       .  A
C229        C236   1.444       .  S
C230        C231   1.408       .  A
C231        C232   1.406       .  A
C231        H234   1.083       .  S
C232        C235   1.443       .  S
C235        N237   1.157       .  T
C236        N238   1.157       .  T
C239        C240   1.405       .  A
C239        C244   1.408       .  A
C240        C241   1.406       .  A
C240        H245   1.085       .  S
C241        C242   1.413       .  A
C241        C248   1.443       .  S
C242        C243   1.404       .  A
C243        C244   1.396       .  A
C243        H246   1.085       .  S
C244        C247   1.444       .  S
C247        N249   1.157       .  T
C248        N250   1.157       .  T
C251        C252   1.405       .  A
C251        C256   1.407       .  A
C252        C253   1.407       .  A
C252        H257   1.084       .  S
C253        C254   1.412       .  A
C253        C260   1.443       .  S
C254        C255   1.403       .  A
C255        C256   1.396       .  A
C255        H258   1.085       .  S
C256        C259   1.441       .  S
C259        N261   1.156       .  T
C260        N262   1.157       .  T
C263        C264   1.407       .  A
C263        C268   1.414       .  A
C264        C265   1.397       .  A
C264        H269   1.085       .  S
C265        C266   1.408       .  A
C265        C272   1.444       .  S
C266        C267   1.405       .  A
C267        C268   1.403       .  A
C267        H270   1.085       .  S
C268        C271   1.443       .  S
C271        N273   1.157       .  T
C272        N274   1.157       .  T
C275        C276   1.420       .  A
C275        C280   1.436       .  A
C276        C277   1.398       .  A
C276        H281   1.078       .  S
C277        C278   1.405       .  A
C277        C284   1.446       .  S
C278        C279   1.394       .  A
C279        C280   1.400       .  A
C279        H282   1.086       .  S
C280        C283   1.445       .  S
C283        N285   1.157       .  T
C284        N286   1.157       .  T
C287        C288   1.424       .  A
C287        C292   1.436       .  A
C288        C289   1.395       .  A
C288        H293   1.084       .  S
C289        C290   1.402       .  A
C289        C296   1.443       .  S
C290        C291   1.395       .  A
C291        C292   1.399       .  A
C291        H294   1.086       .  S
C292        C295   1.442       .  S
C295        N297   1.158       .  T
C296        N298   1.157       .  T
C299        C300   1.396       .  A
C299        C304   1.404       .  A
C300        C301   1.400       .  A
C300        H305   1.087       .  S
C301        C302   1.437       .  A
C301        C308   1.442       .  S
C302        C303   1.425       .  A
C303        C304   1.402       .  A
C303        H306   1.084       .  S
C304        C307   1.444       .  S
C307        N309   1.157       .  T
C308        N310   1.158       .  T
C311        C312   1.420       .  A
C311        C316   1.433       .  A
C312        C313   1.397       .  A
C312        H317   1.077       .  S
C313        C314   1.403       .  A
C313        C320   1.445       .  S
C314        C315   1.397       .  A
C315        C316   1.400       .  A
C315        H318   1.086       .  S
C316        C319   1.446       .  S
C319        N321   1.157       .  T
C320        N322   1.157       .  T
C323        C597   1.581       .  S
C323        C609   1.571       .  S
C323        C624   1.582       .  S
C323        C633   1.571       .  S
O324        C326   1.287       .  A
O325        C326   1.288       .  A
O325       Zr362   2.431       .  S
C326        C561   1.476       .  S
O327        C329   1.287       .  A
O327       Zr339   2.436       .  S
O328        C329   1.289       .  A
O328       Zr363   2.436       .  S
C329        C621   1.482       .  S
O330        C332   1.289       .  A
O331        C332   1.284       .  A
O331       Zr362   2.409       .  S
C332        C636   1.474       .  S
O333        C335   1.286       .  A
O333       Zr336   2.438       .  S
O334        C335   1.290       .  A
O334       Zr363   2.439       .  S
C335        C573   1.476       .  S
Zr336       O337   2.434       .  S
Zr336       O338   2.436       .  S
Zr336       O343   2.374       .  S
Zr336       O366   2.374       .  S
O338        H383   0.990   1_565  S
Zr339       O341   2.433       .  S
Zr339       O343   2.373       .  S
Zr339       O369   2.372       .  S
O342       Zr362   2.378       .  S
O343       Zr363   2.387       .  S
O343        H370   0.966       .  S
O344        C346   1.282       .  A
O344       Zr356   2.415       .  S
O345        C346   1.289       .  A
O345       Zr363   2.437       .  S
C346        C525   1.464       .  S
O347        C349   1.286       .  A
O348        C349   1.289       .  A
O348       Zr362   2.435       .  S
C349        C588   1.476       .  S
O350        C352   1.288       .  A
O350       Zr359   2.443       .  S
O351        C352   1.289       .  A
O351       Zr363   2.429       .  S
C352        C549   1.484       .  S
O353        C355   1.286       .  A
O354        C355   1.285       .  A
O354       Zr362   2.416       .  S
C355        C537   1.494       .  S
Zr356       O364   2.376       .  S
Zr356       O366   2.375       .  S
Zr359       O360   2.434       .  S
Zr359       O361   2.433       .  S
Zr359       O364   2.368       .  S
Zr359       O369   2.368       .  S
O361        H375   0.990       .  S
O361        H385   0.990       .  S
Zr362       O365   2.374       .  S
Zr362       O367   2.383       .  S
Zr362       O368   2.379       .  S
Zr363       O364   2.384       .  S
Zr363       O366   2.383       .  S
Zr363       O369   2.381       .  S
O364        H372   0.966       .  S
O367        H371   0.966       .  S
O368        H373   0.966       .  S
C386        C552   1.504       .  S
C386        C585   1.497       .  S
C386       C1031   1.371       .  D
C387        C564   1.494       .  S
C387        C576   1.491       .  S
C387       C1030   1.371   1_455  D
C388        C501   1.566       .  S
C388        C516   1.574       .  S
C388        C528   1.569       .  S
C388        C540   1.571       .  S
C389        C468   1.498       .  S
C389        C390   1.373       .  D
C390        C480   1.510   1_556  S
O391        C393   1.287       .  A
O391       Zr403   2.438       .  S
O392        C393   1.284       .  A
O392       Zr429   2.412       .  S
C393        C612   1.472       .  S
O394        C396   1.288       .  A
O394      Zr1050   2.441       .  S
O395        C396   1.289   1_556  A
O395       Zr430   2.437   1_556  S
C396        C477   1.484       .  S
O397        C399   1.287       .  A
O397       Zr406   2.438   1_556  S
O398        C399   1.290   1_554  A
O398       Zr429   2.444   1_554  S
C399        C465   1.478       .  S
O400        C402   1.285       .  A
O400      Zr1047   2.422       .  S
O401        C402   1.289       .  A
O401       Zr430   2.437   1_556  S
C402        C600   1.474       .  S
Zr403      O1044   2.422   1_455  S
Zr403       O404   2.434   1_455  S
Zr403      O1049   2.436   1_455  S
Zr403       O409   2.363       .  S
Zr403      O1054   2.371   1_455  S
Zr403      O1077   2.372   1_455  S
Zr403       O435   2.365       .  S
O404        H447   0.990   1_655  S
O405      Zr1047   2.436       .  S
O405       H1090   0.990       .  S
O405        H450   0.990       .  S
Zr406      O1038   2.441   1_455  S
Zr406       O407   2.436   1_554  S
Zr406      O1052   2.435       .  S
Zr406      O1054   2.370   1_454  S
Zr406       O409   2.370   1_554  S
Zr406       O434   2.373       .  S
Zr406      O1080   2.369   1_455  S
O407       H1092   0.990   1_455  S
O407        H451   0.990   1_455  S
O408      Zr1050   2.435       .  S
O408       H1085   0.990       .  S
O409       Zr429   2.379       .  S
O410      Zr1047   2.371       .  S
O410      Zr1050   2.370   1_556  S
O410       Zr430   2.391   1_556  S
O410        H437   0.966       .  S
O411        C413   1.288       .  A
O411      Zr1067   2.441       .  S
O412        C413   1.289       .  A
O412       Zr430   2.438   1_556  S
C413        C456   1.482       .  S
O414        C416   1.284       .  A
O414       Zr426   2.423       .  S
O415        C416   1.284       .  A
O415       Zr429   2.412   1_554  S
C416        C513   1.488       .  S
O417        C419   1.280       .  A
O417      Zr1070   2.403       .  S
O418        C419   1.292       .  A
O418       Zr430   2.450       .  S
C419        C504   1.471       .  S
O420        C422   1.288       .  A
O420       Zr423   2.436       .  S
O421        C422   1.289       .  A
O421       Zr429   2.440       .  S
C422        C492   1.479       .  S
Zr423      O1055   2.441   1_455  S
Zr423       O424   2.436   1_456  S
Zr423       O425   2.434       .  S
Zr423      O1075   2.371   1_456  S
Zr423       O432   2.370   1_556  S
Zr423       O435   2.370       .  S
Zr423      O1077   2.364   1_455  S
O424       H1088   0.990       .  S
O424        H449   0.990       .  S
O425       H1089   0.990   1_455  S
Zr426      O1061   2.403   1_455  S
Zr426       O427   2.434       .  S
Zr426       O428   2.435       .  S
Zr426       O432   2.363       .  S
Zr426      O1075   2.373   1_455  S
Zr426      O1080   2.374   1_455  S
Zr426       O434   2.366       .  S
O427        H443   0.990       .  S
O428       H1086   0.990   1_455  S
O428        H452   0.990       .  S
Zr429       O432   2.378   1_556  S
Zr429       O434   2.380   1_556  S
Zr429       O435   2.385       .  S
Zr430       O431   2.388       .  S
Zr430       O433   2.385   1_554  S
Zr430       O436   2.383       .  S
O431      Zr1067   2.371   1_554  S
O431      Zr1070   2.373       .  S
O431        H439   0.966       .  S
O433      Zr1047   2.372       .  S
O433      Zr1067   2.364       .  S
O434        H438   0.966       .  S
O435        H440   0.966       .  S
O436      Zr1050   2.369       .  S
O436      Zr1070   2.374       .  S
H441       O1052   0.990       .  S
H442       O1072   0.990       .  S
H444       O1068   0.990       .  S
H445       O1069   0.990       .  S
H446       O1049   0.990   1_455  S
H448       O1051   0.990       .  S
C453        C454   1.404       .  A
C453        C458   1.417   1_556  A
C454        C455   1.398       .  A
C454        H459   1.085       .  S
C455        C456   1.411       .  A
C455        C462   1.444       .  S
C456        C457   1.404   1_556  A
C457        C458   1.406       .  A
C457        H460   1.085       .  S
C458        C461   1.443       .  S
C461        N463   1.157       .  T
C462        N464   1.157       .  T
C465        C466   1.400       .  A
C465        C470   1.410   1_556  A
C466        C467   1.399       .  A
C466        H471   1.085       .  S
C467        C468   1.413       .  A
C467        C474   1.442       .  S
C468        C469   1.407   1_556  A
C469        C470   1.407       .  A
C469        H472   1.084       .  S
C470        C473   1.441       .  S
C473        N475   1.156       .  T
C474        N476   1.157       .  T
C477        C478   1.401       .  A
C477        C482   1.412   1_554  A
C478        C479   1.397       .  A
C478        H483   1.086       .  S
C479        C480   1.418       .  A
C479        C486   1.443       .  S
C480        C481   1.411   1_554  A
C481        C482   1.407       .  A
C481        H484   1.082       .  S
C482        C485   1.444       .  S
C485        N487   1.157       .  T
C489        C490   1.405   1_556  A
C489        C494   1.416       .  A
C490        C491   1.397       .  A
C490        H495   1.085       .  S
C491        C492   1.410   1_554  A
C491        C498   1.445       .  S
C492        C493   1.404       .  A
C493        C494   1.407       .  A
C493        H496   1.085       .  S
C494        C497   1.442       .  S
C497        N499   1.157       .  T
C498        N500   1.157       .  T
C501        C502   1.420       .  A
C501        C506   1.423       .  A
C502        C503   1.394       .  A
C502        H507   1.085       .  S
C503        C504   1.402       .  A
C503        C510   1.441       .  S
C504        C505   1.403       .  A
C505        C506   1.401       .  A
C505        H508   1.085       .  S
C506        C509   1.443       .  S
C509        N511   1.158       .  T
C510        N512   1.156       .  T
C513        C514   1.410       .  A
C513        C518   1.409       .  A
C514        C515   1.407       .  A
C514        H519   1.084       .  S
C515        C516   1.426       .  A
C515        C522   1.444       .  S
C516        C517   1.420       .  A
C517        C518   1.385       .  A
C517        H520   1.077       .  S
C518        C521   1.448       .  S
C521        N523   1.158       .  T
C522        N524   1.157       .  T
C525        C526   1.396       .  A
C525        C530   1.398       .  A
C526        C527   1.402       .  A
C526        H531   1.086       .  S
C527        C528   1.429       .  A
C527        C534   1.439       .  S
C528        C529   1.422       .  A
C529        C530   1.391       .  A
C529        H532   1.084       .  S
C530        C533   1.443       .  S
C533        N535   1.157       .  T
C534        N536   1.157       .  T
C537        C538   1.408       .  A
C537        C542   1.412       .  A
C538        C539   1.405       .  A
C538        H543   1.084       .  S
C539        C540   1.426       .  A
C539        C546   1.445       .  S
C540        C541   1.420       .  A
C541        C542   1.391       .  A
C541        H544   1.078       .  S
C542        C545   1.448       .  S
C545        N547   1.158       .  T
C546        N548   1.157       .  T
C549        C550   1.398       .  A
C549        C554   1.414       .  A
C550        C551   1.394       .  A
C550        H555   1.083       .  S
C551        C552   1.417       .  A
C551        C558   1.444       .  S
C552        C553   1.408       .  A
C553        C554   1.406       .  A
C553        H556   1.083       .  S
C554        C557   1.443       .  S
C557        N559   1.157       .  T
C558        N560   1.157       .  T
C561        C562   1.405       .  A
C561        C566   1.408       .  A
C562        C563   1.406       .  A
C562        H567   1.085       .  S
C563        C564   1.413       .  A
C563        C570   1.443       .  S
C564        C565   1.404       .  A
C565        C566   1.396       .  A
C565        H568   1.085       .  S
C566        C569   1.444       .  S
C569        N571   1.157       .  T
C570        N572   1.157       .  T
C573        C574   1.405       .  A
C573        C578   1.407       .  A
C574        C575   1.407       .  A
C574        H579   1.084       .  S
C575        C576   1.412       .  A
C575        C582   1.443       .  S
C576        C577   1.403       .  A
C577        C578   1.396       .  A
C577        H580   1.085       .  S
C578        C581   1.441       .  S
C581        N583   1.156       .  T
C582        N584   1.157       .  T
C585        C586   1.407       .  A
C585        C590   1.414       .  A
C586        C587   1.397       .  A
C586        H591   1.085       .  S
C587        C588   1.408       .  A
C587        C594   1.444       .  S
C588        C589   1.405       .  A
C589        C590   1.403       .  A
C589        H592   1.085       .  S
C590        C593   1.443       .  S
C593        N595   1.157       .  T
C594        N596   1.157       .  T
C597        C598   1.420       .  A
C597        C602   1.436       .  A
C598        C599   1.398       .  A
C598        H603   1.078       .  S
C599        C600   1.405       .  A
C599        C606   1.446       .  S
C600        C601   1.394       .  A
C601        C602   1.400       .  A
C601        H604   1.086       .  S
C602        C605   1.445       .  S
C605        N607   1.157       .  T
C606        N608   1.157       .  T
C609        C610   1.424       .  A
C609        C614   1.436       .  A
C610        C611   1.395       .  A
C610        H615   1.084       .  S
C611        C612   1.402       .  A
C611        C618   1.443       .  S
C612        C613   1.395       .  A
C613        C614   1.399       .  A
C613        H616   1.086       .  S
C614        C617   1.442       .  S
C617        N619   1.158       .  T
C618        N620   1.157       .  T
C621        C622   1.396       .  A
C621        C626   1.404       .  A
C622        C623   1.400       .  A
C622        H627   1.087       .  S
C623        C624   1.437       .  A
C623        C630   1.442       .  S
C624        C625   1.425       .  A
C625        C626   1.402       .  A
C625        H628   1.084       .  S
C626        C629   1.444       .  S
C629        N631   1.157       .  T
C630        N632   1.158       .  T
C633        C634   1.420       .  A
C633        C638   1.433       .  A
C634        C635   1.397       .  A
C634        H639   1.077       .  S
C635        C636   1.403       .  A
C635        C642   1.445       .  S
C636        C637   1.397       .  A
C637        C638   1.400       .  A
C637        H640   1.086       .  S
C638        C641   1.446       .  S
C641        N643   1.157       .  T
C642        N644   1.157       .  T
C645        C919   1.581       .  S
C645        C931   1.571       .  S
C645        C946   1.582       .  S
C645        C955   1.571       .  S
O646        C648   1.287       .  A
O646       Zr980   2.444   1_545  S
O647        C648   1.288       .  A
O647       Zr684   2.431       .  S
C648        C883   1.476       .  S
O649        C651   1.287       .  A
O649       Zr661   2.436       .  S
O650        C651   1.289       .  A
O650       Zr685   2.436       .  S
C651        C943   1.482       .  S
O652        C654   1.289       .  A
O652       Zr983   2.447   1_545  S
O653        C654   1.284       .  A
O653       Zr684   2.409       .  S
C654        C958   1.474       .  S
O655        C657   1.286       .  A
O655       Zr658   2.438       .  S
O656        C657   1.290       .  A
O656       Zr685   2.439       .  S
C657        C895   1.476       .  S
Zr658       O968   2.444       .  S
Zr658       O659   2.434       .  S
Zr658       O660   2.436       .  S
Zr658       O986   2.371       .  S
Zr658       O665   2.374       .  S
Zr658       O688   2.374       .  S
Zr658      O1012   2.372       .  S
O659       H1024   0.990       .  S
O660       H1023   0.990       .  S
O660        H705   0.990       .  S
Zr661       O974   2.447       .  S
Zr661       O984   2.436       .  S
Zr661       O663   2.433       .  S
Zr661       O665   2.373       .  S
Zr661       O986   2.368       .  S
Zr661      O1011   2.369       .  S
Zr661       O691   2.372       .  S
O662       Zr983   2.436       .  S
O662       H1025   0.990       .  S
O662       H1028   0.990       .  S
O663       H1018   0.990       .  S
O664       Zr980   2.371   1_545  S
O664       Zr983   2.368   1_545  S
O664       Zr684   2.378       .  S
O665       Zr685   2.387       .  S
O665        H692   0.966       .  S
O666        C668   1.282       .  A
O666       Zr678   2.415       .  S
O667        C668   1.289       .  A
O667       Zr685   2.437       .  S
C668        C847   1.464       .  S
O669        C671   1.286       .  A
O669      Zr1003   2.431   1_545  S
O670        C671   1.289       .  A
O670       Zr684   2.435       .  S
C671        C910   1.476       .  S
O672        C674   1.288       .  A
O672       Zr681   2.443       .  S
O673        C674   1.289       .  A
O673       Zr685   2.429       .  S
C674        C871   1.484       .  S
O675        C677   1.286       .  A
O675      Zr1000   2.433   1_545  S
O676        C677   1.285       .  A
O676       Zr684   2.416       .  S
C677        C859   1.494       .  S
Zr678       O997   2.433       .  S
Zr678      O1001   2.436       .  S
Zr678      O1002   2.434       .  S
Zr678       O686   2.376       .  S
Zr678      O1009   2.367       .  S
Zr678      O1012   2.364       .  S
Zr678       O688   2.375       .  S
O679      Zr1000   2.436       .  S
O679       H1021   0.990       .  S
O679       H1026   0.990       .  S
O680      Zr1000   2.434   1_545  S
O680       H1022   0.990   1_545  S
Zr681       O991   2.431       .  S
Zr681       O682   2.434       .  S
Zr681       O683   2.433       .  S
Zr681      O1009   2.374       .  S
Zr681       O686   2.368       .  S
Zr681       O691   2.368       .  S
Zr681      O1011   2.372       .  S
O682       H1020   0.990       .  S
O683        H697   0.990       .  S
O683        H707   0.990       .  S
Zr684       O687   2.374       .  S
Zr684       O689   2.383       .  S
Zr684       O690   2.379       .  S
Zr685       O686   2.384       .  S
Zr685       O688   2.383       .  S
Zr685       O691   2.381       .  S
O686        H694   0.966       .  S
O687      Zr1000   2.367   1_545  S
O687      Zr1003   2.374   1_545  S
O689       Zr983   2.369   1_545  S
O689      Zr1003   2.372   1_545  S
O689        H693   0.966       .  S
O690       Zr980   2.372   1_545  S
O690      Zr1000   2.364   1_545  S
O690        H695   0.966       .  S
H696        O985   0.990   1_545  S
H698       O1004   0.990   1_545  S
H699       O1001   0.990       .  S
H700       O1002   0.990       .  S
H701        O982   0.990   1_545  S
H702        O981   0.990   1_545  S
H703        O984   0.990       .  S
H704       O1001   0.990       .  S
H706        O984   0.990       .  S
C708        C874   1.504       .  S
C708        C907   1.497       .  S
C709        C886   1.494       .  S
C709        C898   1.491       .  S
C710        C823   1.566       .  S
C710        C838   1.574       .  S
C710        C850   1.569       .  S
C710        C862   1.571       .  S
C711        C790   1.498       .  S
C711       C1133   1.500       .  S
C711        C712   1.373       .  D
C712       C1097   1.501       .  S
C712        C802   1.510   1_556  S
O713        C715   1.287       .  A
O713       Zr725   2.438       .  S
O714        C715   1.284       .  A
O714       Zr751   2.412       .  S
C715        C934   1.472       .  S
O716        C718   1.288       .  A
O717        C718   1.289   1_556  A
O717       Zr752   2.437   1_556  S
C718        C799   1.484       .  S
O719        C721   1.287       .  A
O719       Zr728   2.438   1_556  S
O720        C721   1.290   1_554  A
O720       Zr751   2.444   1_554  S
C721        C787   1.478       .  S
O722        C724   1.285       .  A
O723        C724   1.289       .  A
O723       Zr752   2.437   1_556  S
C724        C922   1.474       .  S
Zr725       O726   2.434       .  S
Zr725       O731   2.363       .  S
Zr725       O757   2.365       .  S
O726        H769   0.990       .  S
O727        H772   0.990   1_655  S
Zr728       O729   2.436   1_554  S
Zr728       O731   2.370   1_554  S
Zr728       O756   2.373       .  S
O729        H773   0.990       .  S
O731       Zr751   2.379       .  S
O732       Zr752   2.391   1_556  S
O732        H759   0.966       .  S
O733        C735   1.288       .  A
O734        C735   1.289       .  A
O734       Zr752   2.438   1_556  S
C735        C778   1.482       .  S
O736        C738   1.284       .  A
O736       Zr748   2.423       .  S
O737        C738   1.284       .  A
O737       Zr751   2.412   1_554  S
C738        C835   1.488       .  S
O739        C741   1.280       .  A
O740        C741   1.292       .  A
O740       Zr752   2.450       .  S
C741        C826   1.471       .  S
O742        C744   1.288       .  A
O742       Zr745   2.436       .  S
O743        C744   1.289       .  A
O743       Zr751   2.440       .  S
C744        C814   1.479       .  S
Zr745       O746   2.436   1_556  S
Zr745       O747   2.434       .  S
Zr745       O754   2.370   1_556  S
Zr745       O757   2.370       .  S
O746        H771   0.990       .  S
Zr748       O749   2.434       .  S
Zr748       O750   2.435       .  S
Zr748       O754   2.363       .  S
Zr748       O756   2.366       .  S
O749        H765   0.990       .  S
O750        H774   0.990       .  S
Zr751       O754   2.378   1_556  S
Zr751       O756   2.380   1_556  S
Zr751       O757   2.385       .  S
Zr752       O753   2.388       .  S
Zr752       O755   2.385   1_554  S
Zr752       O758   2.383       .  S
O753        H761   0.966       .  S
O756        H760   0.966       .  S
O757        H762   0.966       .  S
C775       C1034   1.501   1_545  S
C775        C776   1.404       .  A
C775        C780   1.417   1_556  A
C776        C777   1.398       .  A
C776        H781   1.085       .  S
C777        C778   1.411       .  A
C777        C784   1.444       .  S
C778        C779   1.404   1_556  A
C779        C780   1.406       .  A
C779        H782   1.085       .  S
C780        C783   1.443       .  S
C783        N785   1.157       .  T
C784        N786   1.157       .  T
C787        C788   1.400       .  A
C787        C792   1.410   1_556  A
C788        C789   1.399       .  A
C788        H793   1.085       .  S
C789        C790   1.413       .  A
C789        C796   1.442       .  S
C790        C791   1.407   1_556  A
C791        C792   1.407       .  A
C791        H794   1.084       .  S
C792        C795   1.441       .  S
C795        N797   1.156       .  T
C796        N798   1.157       .  T
C799        C800   1.401       .  A
C799        C804   1.412   1_554  A
C800        C801   1.397       .  A
C800        H805   1.086       .  S
C801        C802   1.418       .  A
C801        C808   1.443       .  S
C802        C803   1.411   1_554  A
C803        C804   1.407       .  A
C803        H806   1.082       .  S
C804        C807   1.444       .  S
C807        N809   1.157       .  T
C808       N1132   1.157       .  T
N810       C1130   1.157   1_545  T
C811       C1033   1.500   1_545  S
C811        C812   1.405   1_556  A
C811        C816   1.416       .  A
C812        C813   1.397       .  A
C812        H817   1.085       .  S
C813        C814   1.410   1_554  A
C813        C820   1.445       .  S
C814        C815   1.404       .  A
C815        C816   1.407       .  A
C815        H818   1.085       .  S
C816        C819   1.442       .  S
C819        N821   1.157       .  T
C820        N822   1.157       .  T
C823        C824   1.420       .  A
C823        C828   1.423       .  A
C824        C825   1.394       .  A
C824        H829   1.085       .  S
C825        C826   1.402       .  A
C825        C832   1.441       .  S
C826        C827   1.403       .  A
C827        C828   1.401       .  A
C827        H830   1.085       .  S
C828        C831   1.443       .  S
C831        N833   1.158       .  T
C832        N834   1.156       .  T
C835        C836   1.410       .  A
C835        C840   1.409       .  A
C836        C837   1.407       .  A
C836        H841   1.084       .  S
C837        C838   1.426       .  A
C837        C844   1.444       .  S
C838        C839   1.420       .  A
C839        C840   1.385       .  A
C839        H842   1.077       .  S
C840        C843   1.448       .  S
C843        N845   1.158       .  T
C844        N846   1.157       .  T
C847        C848   1.396       .  A
C847        C852   1.398       .  A
C848        C849   1.402       .  A
C848        H853   1.086       .  S
C849        C850   1.429       .  A
C849        C856   1.439       .  S
C850        C851   1.422       .  A
C851        C852   1.391       .  A
C851        H854   1.084       .  S
C852        C855   1.443       .  S
C855        N857   1.157       .  T
C856        N858   1.157       .  T
C859        C860   1.408       .  A
C859        C864   1.412       .  A
C860        C861   1.405       .  A
C860        H865   1.084       .  S
C861        C862   1.426       .  A
C861        C868   1.445       .  S
C862        C863   1.420       .  A
C863        C864   1.391       .  A
C863        H866   1.078       .  S
C864        C867   1.448       .  S
C867        N869   1.158       .  T
C868        N870   1.157       .  T
C871        C872   1.398       .  A
C871        C876   1.414       .  A
C872        C873   1.394       .  A
C872        H877   1.083       .  S
C873        C874   1.417       .  A
C873        C880   1.444       .  S
C874        C875   1.408       .  A
C875        C876   1.406       .  A
C875        H878   1.083       .  S
C876        C879   1.443       .  S
C879        N881   1.157       .  T
C880        N882   1.157       .  T
C883        C884   1.405       .  A
C883        C888   1.408       .  A
C884        C885   1.406       .  A
C884        H889   1.085       .  S
C885        C886   1.413       .  A
C885        C892   1.443       .  S
C886        C887   1.404       .  A
C887        C888   1.396       .  A
C887        H890   1.085       .  S
C888        C891   1.444       .  S
C891        N893   1.157       .  T
C892        N894   1.157       .  T
C895        C896   1.405       .  A
C895        C900   1.407       .  A
C896        C897   1.407       .  A
C896        H901   1.084       .  S
C897        C898   1.412       .  A
C897        C904   1.443       .  S
C898        C899   1.403       .  A
C899        C900   1.396       .  A
C899        H902   1.085       .  S
C900        C903   1.441       .  S
C903        N905   1.156       .  T
C904        N906   1.157       .  T
C907        C908   1.407       .  A
C907        C912   1.414       .  A
C908        C909   1.397       .  A
C908        H913   1.085       .  S
C909        C910   1.408       .  A
C909        C916   1.444       .  S
C910        C911   1.405       .  A
C911        C912   1.403       .  A
C911        H914   1.085       .  S
C912        C915   1.443       .  S
C915        N917   1.157   1_655  T
C916        N918   1.157       .  T
C919        C920   1.420       .  A
C919        C924   1.436       .  A
C920        C921   1.398       .  A
C920        H925   1.078       .  S
C921        C922   1.405       .  A
C921        C928   1.446       .  S
C922        C923   1.394       .  A
C923        C924   1.400       .  A
C923        H926   1.086       .  S
C924        C927   1.445       .  S
C927        N929   1.157       .  T
C928        N930   1.157       .  T
C931        C932   1.424       .  A
C931        C936   1.436       .  A
C932        C933   1.395       .  A
C932        H937   1.084       .  S
C933        C934   1.402       .  A
C933        C940   1.443       .  S
C934        C935   1.395       .  A
C935        C936   1.399       .  A
C935        H938   1.086       .  S
C936        C939   1.442       .  S
C939        N941   1.158       .  T
C940        N942   1.157       .  T
C943        C944   1.396       .  A
C943        C948   1.404       .  A
C944        C945   1.400       .  A
C944        H949   1.087       .  S
C945        C946   1.437       .  A
C945        C952   1.442       .  S
C946        C947   1.425       .  A
C947        C948   1.402       .  A
C947        H950   1.084       .  S
C948        C951   1.444       .  S
C951        N953   1.157       .  T
C952        N954   1.158       .  T
C955        C956   1.420       .  A
C955        C960   1.433       .  A
C956        C957   1.397       .  A
C956        H961   1.077       .  S
C957        C958   1.403       .  A
C957        C964   1.445       .  S
C958        C959   1.397       .  A
C959        C960   1.400       .  A
C959        H962   1.086       .  S
C960        C963   1.446       .  S
C963        N965   1.157       .  T
C964        N966   1.157       .  T
C967       C1241   1.581       .  S
C967       C1253   1.571       .  S
C967       C1268   1.582       .  S
C967       C1277   1.571       .  S
O968        C970   1.287       .  A
O969        C970   1.288       .  A
O969      Zr1006   2.431       .  S
C970       C1205   1.476       .  S
O971        C973   1.287       .  A
O971       Zr983   2.436       .  S
O972        C973   1.289       .  A
O972      Zr1007   2.436       .  S
C973       C1265   1.482       .  S
O974        C976   1.289       .  A
O975        C976   1.284       .  A
O975      Zr1006   2.409       .  S
C976       C1280   1.474       .  S
O977        C979   1.286       .  A
O977       Zr980   2.438       .  S
O978        C979   1.290       .  A
O978      Zr1007   2.439       .  S
C979       C1217   1.476       .  S
Zr980       O981   2.434       .  S
Zr980       O982   2.436       .  S
Zr980       O987   2.374       .  S
Zr980      O1010   2.374       .  S
O982       H1027   0.990   1_565  S
Zr983       O985   2.433       .  S
Zr983       O987   2.373       .  S
Zr983      O1013   2.372       .  S
O986      Zr1006   2.378       .  S
O987      Zr1007   2.387       .  S
O987       H1014   0.966       .  S
O988        C990   1.282       .  A
O988      Zr1000   2.415       .  S
O989        C990   1.289       .  A
O989      Zr1007   2.437       .  S
C990       C1169   1.464       .  S
O991        C993   1.286       .  A
O992        C993   1.289       .  A
O992      Zr1006   2.435       .  S
C993       C1232   1.476       .  S
O994        C996   1.288       .  A
O994      Zr1003   2.443       .  S
O995        C996   1.289       .  A
O995      Zr1007   2.429       .  S
C996       C1193   1.484       .  S
O997        C999   1.286       .  A
O998        C999   1.285       .  A
O998      Zr1006   2.416       .  S
C999       C1181   1.494       .  S
Zr1000     O1008   2.376       .  S
Zr1000     O1010   2.375       .  S
Zr1003     O1004   2.434       .  S
Zr1003     O1005   2.433       .  S
Zr1003     O1008   2.368       .  S
Zr1003     O1013   2.368       .  S
O1005      H1019   0.990       .  S
O1005      H1029   0.990       .  S
Zr1006     O1009   2.374       .  S
Zr1006     O1011   2.383       .  S
Zr1006     O1012   2.379       .  S
Zr1007     O1008   2.384       .  S
Zr1007     O1010   2.383       .  S
Zr1007     O1013   2.381       .  S
O1008      H1016   0.966       .  S
O1011      H1015   0.966       .  S
O1012      H1017   0.966       .  S
C1030      C1196   1.504       .  S
C1030      C1229   1.497       .  S
C1031      C1208   1.494       .  S
C1031      C1220   1.491       .  S
C1032      C1145   1.566       .  S
C1032      C1160   1.574       .  S
C1032      C1172   1.569       .  S
C1032      C1184   1.571       .  S
C1033      C1112   1.498       .  S
C1033      C1034   1.373       .  D
C1034      C1124   1.510   1_556  S
O1035      C1037   1.287       .  A
O1035     Zr1047   2.438       .  S
O1036      C1037   1.284       .  A
O1036     Zr1073   2.412       .  S
C1037      C1256   1.472       .  S
O1038      C1040   1.288       .  A
O1039      C1040   1.289   1_556  A
O1039     Zr1074   2.437   1_556  S
C1040      C1121   1.484       .  S
O1041      C1043   1.287       .  A
O1041     Zr1050   2.438   1_556  S
O1042      C1043   1.290   1_554  A
O1042     Zr1073   2.444   1_554  S
C1043      C1109   1.478       .  S
O1044      C1046   1.285       .  A
O1045      C1046   1.289       .  A
O1045     Zr1074   2.437   1_556  S
C1046      C1244   1.474       .  S
Zr1047     O1048   2.434       .  S
Zr1047     O1053   2.363       .  S
Zr1047     O1079   2.365       .  S
O1048      H1091   0.990       .  S
O1049      H1094   0.990   1_655  S
Zr1050     O1051   2.436   1_554  S
Zr1050     O1053   2.370   1_554  S
Zr1050     O1078   2.373       .  S
O1051      H1095   0.990       .  S
O1053     Zr1073   2.379       .  S
O1054     Zr1074   2.391   1_556  S
O1054      H1081   0.966       .  S
O1055      C1057   1.288       .  A
O1056      C1057   1.289       .  A
O1056     Zr1074   2.438   1_556  S
C1057      C1100   1.482       .  S
O1058      C1060   1.284       .  A
O1058     Zr1070   2.423       .  S
O1059      C1060   1.284       .  A
O1059     Zr1073   2.412   1_554  S
C1060      C1157   1.488       .  S
O1061      C1063   1.280       .  A
O1062      C1063   1.292       .  A
O1062     Zr1074   2.450       .  S
C1063      C1148   1.471       .  S
O1064      C1066   1.288       .  A
O1064     Zr1067   2.436       .  S
O1065      C1066   1.289       .  A
O1065     Zr1073   2.440       .  S
C1066      C1136   1.479       .  S
Zr1067     O1068   2.436   1_556  S
Zr1067     O1069   2.434       .  S
Zr1067     O1076   2.370   1_556  S
Zr1067     O1079   2.370       .  S
O1068      H1093   0.990       .  S
Zr1070     O1071   2.434       .  S
Zr1070     O1072   2.435       .  S
Zr1070     O1076   2.363       .  S
Zr1070     O1078   2.366       .  S
O1071      H1087   0.990       .  S
O1072      H1096   0.990       .  S
Zr1073     O1076   2.378   1_556  S
Zr1073     O1078   2.380   1_556  S
Zr1073     O1079   2.385       .  S
Zr1074     O1075   2.388       .  S
Zr1074     O1077   2.385   1_554  S
Zr1074     O1080   2.383       .  S
O1075      H1083   0.966       .  S
O1078      H1082   0.966       .  S
O1079      H1084   0.966       .  S
C1097      C1098   1.404       .  A
C1097      C1102   1.417   1_556  A
C1098      C1099   1.398       .  A
C1098      H1103   1.085       .  S
C1099      C1100   1.411       .  A
C1099      C1106   1.444       .  S
C1100      C1101   1.404   1_556  A
C1101      C1102   1.406       .  A
C1101      H1104   1.085       .  S
C1102      C1105   1.443       .  S
C1105      N1107   1.157       .  T
C1106      N1108   1.157       .  T
C1109      C1110   1.400       .  A
C1109      C1114   1.410   1_556  A
C1110      C1111   1.399       .  A
C1110      H1115   1.085       .  S
C1111      C1112   1.413       .  A
C1111      C1118   1.442       .  S
C1112      C1113   1.407   1_556  A
C1113      C1114   1.407       .  A
C1113      H1116   1.084       .  S
C1114      C1117   1.441       .  S
C1117      N1119   1.156       .  T
C1118      N1120   1.157       .  T
C1121      C1122   1.401       .  A
C1121      C1126   1.412   1_554  A
C1122      C1123   1.397       .  A
C1122      H1127   1.086       .  S
C1123      C1124   1.418       .  A
C1123      C1130   1.443       .  S
C1124      C1125   1.411   1_554  A
C1125      C1126   1.407       .  A
C1125      H1128   1.082       .  S
C1126      C1129   1.444       .  S
C1129      N1131   1.157       .  T
C1133      C1134   1.405   1_556  A
C1133      C1138   1.416       .  A
C1134      C1135   1.397       .  A
C1134      H1139   1.085       .  S
C1135      C1136   1.410   1_554  A
C1135      C1142   1.445       .  S
C1136      C1137   1.404       .  A
C1137      C1138   1.407       .  A
C1137      H1140   1.085       .  S
C1138      C1141   1.442       .  S
C1141      N1143   1.157       .  T
C1142      N1144   1.157       .  T
C1145      C1146   1.420       .  A
C1145      C1150   1.423       .  A
C1146      C1147   1.394       .  A
C1146      H1151   1.085       .  S
C1147      C1148   1.402       .  A
C1147      C1154   1.441       .  S
C1148      C1149   1.403       .  A
C1149      C1150   1.401       .  A
C1149      H1152   1.085       .  S
C1150      C1153   1.443       .  S
C1153      N1155   1.158       .  T
C1154      N1156   1.156       .  T
C1157      C1158   1.410       .  A
C1157      C1162   1.409       .  A
C1158      C1159   1.407       .  A
C1158      H1163   1.084       .  S
C1159      C1160   1.426       .  A
C1159      C1166   1.444       .  S
C1160      C1161   1.420       .  A
C1161      C1162   1.385       .  A
C1161      H1164   1.077       .  S
C1162      C1165   1.448       .  S
C1165      N1167   1.158       .  T
C1166      N1168   1.157       .  T
C1169      C1170   1.396       .  A
C1169      C1174   1.398       .  A
C1170      C1171   1.402       .  A
C1170      H1175   1.086       .  S
C1171      C1172   1.429       .  A
C1171      C1178   1.439       .  S
C1172      C1173   1.422       .  A
C1173      C1174   1.391       .  A
C1173      H1176   1.084       .  S
C1174      C1177   1.443       .  S
C1177      N1179   1.157       .  T
C1178      N1180   1.157       .  T
C1181      C1182   1.408       .  A
C1181      C1186   1.412       .  A
C1182      C1183   1.405       .  A
C1182      H1187   1.084       .  S
C1183      C1184   1.426       .  A
C1183      C1190   1.445       .  S
C1184      C1185   1.420       .  A
C1185      C1186   1.391       .  A
C1185      H1188   1.078       .  S
C1186      C1189   1.448       .  S
C1189      N1191   1.158       .  T
C1190      N1192   1.157       .  T
C1193      C1194   1.398       .  A
C1193      C1198   1.414       .  A
C1194      C1195   1.394       .  A
C1194      H1199   1.083       .  S
C1195      C1196   1.417       .  A
C1195      C1202   1.444       .  S
C1196      C1197   1.408       .  A
C1197      C1198   1.406       .  A
C1197      H1200   1.083       .  S
C1198      C1201   1.443       .  S
C1201      N1203   1.157       .  T
C1202      N1204   1.157       .  T
C1205      C1206   1.405       .  A
C1205      C1210   1.408       .  A
C1206      C1207   1.406       .  A
C1206      H1211   1.085       .  S
C1207      C1208   1.413       .  A
C1207      C1214   1.443       .  S
C1208      C1209   1.404       .  A
C1209      C1210   1.396       .  A
C1209      H1212   1.085       .  S
C1210      C1213   1.444       .  S
C1213      N1215   1.157       .  T
C1214      N1216   1.157       .  T
C1217      C1218   1.405       .  A
C1217      C1222   1.407       .  A
C1218      C1219   1.407       .  A
C1218      H1223   1.084       .  S
C1219      C1220   1.412       .  A
C1219      C1226   1.443       .  S
C1220      C1221   1.403       .  A
C1221      C1222   1.396       .  A
C1221      H1224   1.085       .  S
C1222      C1225   1.441       .  S
C1225      N1227   1.156       .  T
C1226      N1228   1.157       .  T
C1229      C1230   1.407       .  A
C1229      C1234   1.414       .  A
C1230      C1231   1.397       .  A
C1230      H1235   1.085       .  S
C1231      C1232   1.408       .  A
C1231      C1238   1.444       .  S
C1232      C1233   1.405       .  A
C1233      C1234   1.403       .  A
C1233      H1236   1.085       .  S
C1234      C1237   1.443       .  S
C1237      N1239   1.157   1_655  T
C1238      N1240   1.157       .  T
C1241      C1242   1.420       .  A
C1241      C1246   1.436       .  A
C1242      C1243   1.398       .  A
C1242      H1247   1.078       .  S
C1243      C1244   1.405       .  A
C1243      C1250   1.446       .  S
C1244      C1245   1.394       .  A
C1245      C1246   1.400       .  A
C1245      H1248   1.086       .  S
C1246      C1249   1.445       .  S
C1249      N1251   1.157       .  T
C1250      N1252   1.157       .  T
C1253      C1254   1.424       .  A
C1253      C1258   1.436       .  A
C1254      C1255   1.395       .  A
C1254      H1259   1.084       .  S
C1255      C1256   1.402       .  A
C1255      C1262   1.443       .  S
C1256      C1257   1.395       .  A
C1257      C1258   1.399       .  A
C1257      H1260   1.086       .  S
C1258      C1261   1.442       .  S
C1261      N1263   1.158       .  T
C1262      N1264   1.157       .  T
C1265      C1266   1.396       .  A
C1265      C1270   1.404       .  A
C1266      C1267   1.400       .  A
C1266      H1271   1.087       .  S
C1267      C1268   1.437       .  A
C1267      C1274   1.442       .  S
C1268      C1269   1.425       .  A
C1269      C1270   1.402       .  A
C1269      H1272   1.084       .  S
C1270      C1273   1.444       .  S
C1273      N1275   1.157       .  T
C1274      N1276   1.158       .  T
C1277      C1278   1.420       .  A
C1277      C1282   1.433       .  A
C1278      C1279   1.397       .  A
C1278      H1283   1.077       .  S
C1279      C1280   1.403       .  A
C1279      C1286   1.445       .  S
C1280      C1281   1.397       .  A
C1281      C1282   1.400       .  A
C1281      H1284   1.086       .  S
C1282      C1285   1.446       .  S
C1285      N1287   1.157       .  T
C1286      N1288   1.157       .  T
