geometry optimzed in LAMMPS
_audit_creation_date              2020-12-01 
_audit_creation_method            'lammps2cif' 
_symmetry_space_group_name_H-M    'P1' 
_symmetry_Int_Tables_number       1 
_symmetry_cell_setting            triclinic 
loop_ 
_symmetry_equiv_pos_as_xyz 
  x,y,z 
_cell_length_a                    28.66905864 
_cell_length_b                    28.358360196567965 
_cell_length_c                    55.43312491015455 
_cell_angle_alpha                 89.76086397665662 
_cell_angle_beta                  89.9469667919485 
_cell_angle_gamma                 89.73106297355419 
loop_ 
_atom_site_label 
_atom_site_type_symbol 
_atom_site_fract_x 
_atom_site_fract_y 
_atom_site_fract_z 
_atom_site_charge 
O1          O  0.69332873  0.01385335  0.65114971    -0.71900
O2          O  0.81821786  0.03486149  0.62920263    -0.72200
O3          O  0.73771382  0.00758600  0.60878304    -0.72000
O4          O  0.77491432  0.04321267  0.67171656    -0.72000
O5          O  0.79623666  0.97145046  0.67956868    -0.72000
O6          O  0.75122695  0.93406834  0.61733518    -0.72000
O7          O  0.83294528  0.96055338  0.63564137    -0.71900
O8          O  0.71285553  0.94272891  0.66137823    -0.72100
V9          V  0.75618167  0.02355524  0.64049770     1.35200
V10         V  0.77280561  0.95362774  0.64844598     1.35200
C11         C  0.68143483  0.97381214  0.65934093     0.77300
C12         C  0.84630496  0.00031654  0.62835333     0.77400
C13         C  0.73784841  0.96502212  0.60220673     0.77200
C14         C  0.79511264  0.01448083  0.68581333     0.77200
O15         O  0.91535899  0.26868637  0.87042965    -0.71900
O16         O  0.91005711  0.14112780  0.89330831    -0.72200
O17         O  0.92621090  0.22582746  0.91337512    -0.72000
O18         O  0.89723818  0.18306431  0.85047918    -0.72000
O19         O  0.97054721  0.17102111  0.84297104    -0.72000
O20         O  0.00004322  0.22033430  0.90566735    -0.72000
O21         O  0.98478498  0.13542167  0.88711289    -0.71900
O22         O  0.98819990  0.25777655  0.86136224    -0.72100
V23         V  0.91355846  0.20469290  0.88166282     1.35200
V24         V  0.98441246  0.19651111  0.87431577     1.35200
C25         C  0.95345267  0.28502383  0.86230613     0.77300
C26         C  0.94743153  0.11718943  0.89436111     0.77400
C27         C  0.96778549  0.22995207  0.92060064     0.77200
C28         C  0.92825323  0.16723331  0.83641059     0.77200
O29         O  0.32096761  0.85684656  0.64627427    -0.71900
O30         O  0.19224073  0.86738671  0.62786661    -0.72200
O31         O  0.27439616  0.87704259  0.60542457    -0.72000
O32         O  0.23722358  0.84452756  0.66866801    -0.72000
O33         O  0.23244347  0.91836427  0.67846890    -0.72000
O34         O  0.27921025  0.95073241  0.61516248    -0.72000
O35         O  0.19546932  0.94237260  0.63561185    -0.71900
O36         O  0.31843686  0.92948928  0.65836483    -0.72100
V37         V  0.25643147  0.86279942  0.63736961     1.35200
V38         V  0.25664867  0.93379365  0.64685210     1.35200
C39         C  0.34178122  0.89229464  0.65506679     0.77300
C40         C  0.17281875  0.90767800  0.62793420     0.77400
C41         C  0.28267768  0.91889422  0.59910734     0.77200
C42         C  0.22490753  0.87534109  0.68375974     0.77200
O43         O  0.08398090  0.63884018  0.87262444    -0.71900
O44         O  0.09197511  0.76862832  0.89077975    -0.72200
O45         O  0.07091311  0.68776682  0.91332834    -0.72000
O46         O  0.10745331  0.72051685  0.84995961    -0.72000
O47         O  0.03561426  0.73503485  0.84015125    -0.72000
O48         O  0.99792749  0.69385845  0.90361917    -0.72000
O49         O  0.01807640  0.77610283  0.88265862    -0.71900
O50         O  0.01280355  0.65128276  0.86068104    -0.72100
V51         V  0.08723220  0.70398184  0.88136911     1.35200
V52         V  0.01749926  0.71369370  0.87186809     1.35200
C53         C  0.04636241  0.62312608  0.86378134     0.77300
C54         C  0.05531729  0.79372277  0.89033649     0.77400
C55         C  0.02872275  0.68525326  0.91959263     0.77200
C56         C  0.07862264  0.73530334  0.83445820     0.77200
O57         O  0.07520844  0.27398478  0.14692307    -0.71900
O58         O  0.07981900  0.14736482  0.12293927    -0.72200
O59         O  0.05671000  0.23219459  0.10478447    -0.72000
O60         O  0.10061363  0.18887169  0.16545511    -0.72000
O61         O  0.02998483  0.17691289  0.17769600    -0.72000
O62         O  0.98506794  0.22119099  0.11617908    -0.72000
O63         O  0.00834327  0.13805341  0.13506212    -0.71900
O64         O  0.00423300  0.26185519  0.15898235    -0.72100
V65         V  0.07681890  0.21041840  0.13540433     1.35200
V66         V  0.00837670  0.19989123  0.14687723     1.35200
C67         C  0.03798842  0.28973830  0.15641188     0.77300
C68         C  0.04366559  0.12188412  0.12439690     0.77400
C69         C  0.01378472  0.23321225  0.09982778     0.77200
C70         C  0.07357860  0.17382088  0.18172100     0.77200
O71         O  0.29755584  0.04538029  0.37749762    -0.71900
O72         O  0.16745714  0.02437450  0.39112288    -0.72200
O73         O  0.24717200  0.01509248  0.41557028    -0.72000
O74         O  0.21621137  0.05815651  0.35303740    -0.72000
O75         O  0.21749427  0.98665502  0.33936859    -0.72000
O76         O  0.25833398  0.94399669  0.40225391    -0.72000
O77         O  0.17693218  0.95215328  0.37936453    -0.71900
O78         O  0.30051723  0.97549945  0.36173714    -0.72100
V79         V  0.23232782  0.03456033  0.38391906     1.35200
V80         V  0.23833765  0.96604597  0.37085247     1.35200
C81         C  0.32119017  0.01280421  0.36747553     0.77300
C82         C  0.15101245  0.98316921  0.38849960     0.77400
C83         C  0.25728680  0.97264419  0.41986551     0.77200
C84         C  0.20998102  0.03037410  0.33563777     0.77200
O85         O  0.66866506  0.87577138  0.37371346    -0.71900
O86         O  0.79665344  0.85120643  0.38932971    -0.72200
O87         O  0.72057422  0.87689916  0.41422729    -0.72000
O88         O  0.74576236  0.84796629  0.34883693    -0.72000
O89         O  0.76486059  0.92057548  0.34167681    -0.72000
O90         O  0.73463379  0.95073548  0.40732556    -0.72000
O91         O  0.81128264  0.92550000  0.38323791    -0.71900
O92         O  0.68673380  0.94827900  0.36557263    -0.72100
V93         V  0.73299624  0.86434687  0.38128967     1.35200
V94         V  0.74879796  0.93484782  0.37451534     1.35200
C95         C  0.65585877  0.91699218  0.36753259     0.77300
C96         C  0.82537495  0.88501539  0.38909855     0.77400
C97         C  0.72462363  0.91827391  0.42227948     0.77200
C98         C  0.76169186  0.87834923  0.33432267     0.77200
O99         O  0.91037610  0.64603162  0.14499276    -0.71900
O100        O  0.90224692  0.77520948  0.12489530    -0.72200
O101        O  0.92785226  0.69395628  0.10424005    -0.72000
O102        O  0.88259140  0.72778864  0.16582907    -0.72000
O103        O  0.95251115  0.74215314  0.17836118    -0.72000
O104        O  0.99914476  0.70334882  0.11620748    -0.72000
O105        O  0.97397713  0.78471717  0.13651152    -0.71900
O106        O  0.98020079  0.65897890  0.15844951    -0.72100
V107        V  0.90708470  0.71086787  0.13537655     1.35200
V108        V  0.97509310  0.72185360  0.14725768     1.35200
C109        C  0.94734213  0.63047036  0.15482623     0.77300
C110        C  0.93782662  0.80130726  0.12675263     0.77400
C111        C  0.97081413  0.69365700  0.09931575     0.77200
C112        C  0.90876571  0.74329214  0.18222742     0.77200
C113        C  0.82279530  0.79968523  0.22685898    -0.11500
C114        C  0.84975273  0.80376799  0.24776693     0.15000
C115        C  0.89622226  0.78650232  0.24737945     0.01900
C116        C  0.91493391  0.76774247  0.22587896    -0.15900
C117        C  0.88778401  0.76360390  0.20481030    -0.10700
C118        C  0.84066467  0.77967657  0.20564973     0.08600
C119        C  0.82698358  0.82504849  0.26951615     0.09700
S120        S  0.93300419  0.78594841  0.27378268    -0.25000
H121        H  0.95067216  0.75519066  0.22581329     0.19900
S122        S  0.80235014  0.77771761  0.17975031    -0.30700
H123        H  0.78732308  0.81295637  0.22711917     0.10200
C124        C  0.84082250  0.86877470  0.27928423     0.03400
C125        C  0.81748350  0.88698155  0.29969511    -0.13000
C126        C  0.77938306  0.86325908  0.31015542    -0.08700
C127        C  0.76317227  0.82171682  0.29884855     0.06900
C128        C  0.78760714  0.80268747  0.27923752    -0.13800
S129        S  0.88738196  0.90198177  0.26546397    -0.30700
H130        H  0.82992685  0.91905943  0.30797125     0.11100
S131        S  0.71037899  0.79215192  0.30788907    -0.27800
H132        H  0.77525594  0.77032177  0.27115596     0.08400
H133        H  0.76013115  0.78259433  0.19248356     0.26800
H134        H  0.88252649  0.94251518  0.27980754     0.21600
H135        H  0.68647605  0.83379936  0.31420424     0.26900
H136        H  0.89683239  0.78396510  0.29088184     0.15700
C137        C  0.95393646  0.88415818  0.38066143    -0.11500
C138        C  0.96746132  0.90804721  0.40162054     0.15000
C139        C  0.93513312  0.91428566  0.42050926     0.01900
C140        C  0.88890966  0.90033845  0.41714243    -0.15900
C141        C  0.87455831  0.87967877  0.39544020    -0.10700
C142        C  0.90785038  0.86969286  0.37742494     0.08600
C143        C  0.01440549  0.92902631  0.40220659     0.09700
S144        S  0.94995856  0.94264692  0.44850895    -0.25000
H145        H  0.86322444  0.90877521  0.43084731     0.19900
S146        S  0.89251156  0.84383379  0.34884812    -0.30700
H147        H  0.97893957  0.87891310  0.36622571     0.10200
C148        C  0.05405913  0.90044400  0.40505074     0.03400
C149        C  0.09813947  0.92035924  0.40211210    -0.13000
C150        C  0.10370800  0.96842442  0.39616465    -0.08700
C151        C  0.06383197  0.99774532  0.39518951     0.06900
C152        C  0.01951679  0.97761139  0.39792656    -0.13800
S153        S  0.04838883  0.83828865  0.41173190    -0.30700
H154        H  0.12857338  0.89778595  0.40362594     0.11100
S155        S  0.06701252  0.05982687  0.38877389    -0.27800
H156        H  0.98874192  0.99963644  0.39597306     0.08400
H157        H  0.85386923  0.81856332  0.35748608     0.26800
H158        H  0.09631198  0.82840910  0.41400943     0.21600
H159        H  0.09847728  0.06847085  0.40769532     0.26900
H160        H  0.99741454  0.92994320  0.44834947     0.15700
C161        C  0.52385382  0.92939833  0.37420717    -0.11500
C162        C  0.51537914  0.96953851  0.35994112     0.15000
C163        C  0.55236623  0.98941003  0.34664052     0.01900
C164        C  0.59700303  0.96944614  0.34835282    -0.15900
C165        C  0.60628091  0.93053779  0.36353552    -0.10700
C166        C  0.56876080  0.91007149  0.37640267     0.08600
C167        C  0.46740439  0.98922220  0.35936869     0.09700
S168        S  0.54522174  0.04051925  0.32747031    -0.25000
H169        H  0.62519795  0.98559297  0.33828893     0.19900
S170        S  0.57612787  0.86165509  0.39719093    -0.30700
H171        H  0.49538525  0.91385615  0.38432267     0.10200
C172        C  0.43635418  0.97791745  0.34067555     0.03400
C173        C  0.38933320  0.99114790  0.34266464    -0.13000
C174        C  0.37223150  0.01456043  0.36324885    -0.08700
C175        C  0.40420460  0.02846548  0.38123745     0.06900
C176        C  0.45145197  0.01602487  0.37898814    -0.13800
S177        S  0.45582474  0.94340692  0.31522043    -0.30700
H178        H  0.36500757  0.98038048  0.32883252     0.11100
S179        S  0.38634268  0.05758637  0.40854058    -0.27800
H180        H  0.47547922  0.02486515  0.39333362     0.08400
H181        H  0.61311941  0.88300837  0.40967553     0.26800
H182        H  0.41231247  0.94029182  0.30364619     0.21600
H183        H  0.35110229  0.02487238  0.41394879     0.26900
H184        H  0.50806031  0.06108302  0.34024736     0.15700
C185        C  0.94178484  0.93323903  0.12493054    -0.11500
C186        C  0.97625095  0.93953510  0.10718043     0.15000
C187        C  0.98996709  0.90101885  0.09283582     0.01900
C188        C  0.97192310  0.85636223  0.09788293    -0.15900
C189        C  0.94019848  0.84929998  0.11685101    -0.10700
C190        C  0.92344211  0.88850760  0.12984285     0.08600
C191        C  0.00102815  0.98505535  0.10634496     0.09700
S192        S  0.03330630  0.90571017  0.06936521    -0.25000
H193        H  0.98535065  0.82621148  0.08806437     0.19900
S194        S  0.88297913  0.88280573  0.15457051    -0.30700
H195        H  0.93105308  0.96290720  0.13591715     0.10200
C196        C  0.98254844  0.02405325  0.09383013     0.03400
C197        C  0.00198071  0.06866849  0.09751363    -0.13000
C198        C  0.03954272  0.07491176  0.11346138    -0.08700
C199        C  0.06117258  0.03496442  0.12379681     0.06900
C200        C  0.04138202  0.99043399  0.12037154    -0.13800
S201        S  0.93235501  0.01746404  0.07452532    -0.30700
H202        H  0.98532519  0.09942236  0.08960826     0.11100
S203        S  0.11067318  0.03938807  0.14352258    -0.27800
H204        H  0.05608346  0.96014425  0.12967505     0.08400
H205        H  0.85939975  0.84381083  0.14502548     0.26800
H206        H  0.93299074  0.06349250  0.06495226     0.21600
H207        H  0.13191596  0.07553606  0.13006948     0.26900
H208        H  0.02546768  0.95353909  0.06397687     0.15700
C209        C  0.98511788  0.40318233  0.18040200    -0.11500
C210        C  0.00282519  0.43587314  0.16376410     0.15000
C211        C  0.03789790  0.42137058  0.14743078     0.01900
C212        C  0.05171231  0.37394696  0.14677834    -0.15900
C213        C  0.03161656  0.34037995  0.16224682    -0.10700
C214        C  0.99947771  0.35586149  0.18001868     0.08600
C215        C  0.98300256  0.48431215  0.16317973     0.09700
S216        S  0.06462118  0.46114751  0.12609328    -0.25000
H217        H  0.07654523  0.36281851  0.13318087     0.19900
S218        S  0.97530042  0.31703807  0.20260487    -0.30700
H219        H  0.95917759  0.41439762  0.19342656     0.10200
C220        C  0.95287940  0.49918518  0.14449724     0.03400
C221        C  0.93867649  0.54662175  0.14324571    -0.13000
C222        C  0.95416570  0.57963862  0.16023702    -0.08700
C223        C  0.98184848  0.56376427  0.17984676     0.06900
C224        C  0.99599613  0.51644890  0.18105059    -0.13800
S225        S  0.93364392  0.45799341  0.12185166    -0.30700
H226        H  0.91755038  0.55857337  0.12821560     0.11100
S227        S  0.00055100  0.60208969  0.20381156    -0.27800
H228        H  0.01834308  0.50483062  0.19569973     0.08400
H229        H  0.01472554  0.28738586  0.20399053     0.26800
H230        H  0.90698740  0.49024530  0.10823764     0.21600
H231        H  0.96107235  0.63171527  0.20291123     0.26900
H232        H  0.06036730  0.50188791  0.14028987     0.15700
C233        C  0.15681429  0.11982937  0.22898676    -0.11500
C234        C  0.12711806  0.11220841  0.24866784     0.15000
C235        C  0.07970518  0.12593726  0.24649143     0.01900
C236        C  0.06317405  0.14528934  0.22458580    -0.15900
C237        C  0.09288615  0.15252920  0.20462474    -0.10700
C238        C  0.14059151  0.13906568  0.20719284     0.08600
C239        C  0.14761731  0.09014024  0.27092198     0.09700
S240        S  0.03856783  0.12062593  0.27099818    -0.25000
H241        H  0.02678988  0.15546527  0.22330724     0.19900
S242        S  0.18321724  0.14365833  0.18340315    -0.30700
H243        H  0.19319288  0.10960537  0.23045514     0.10200
C244        C  0.13804038  0.04317182  0.27794168     0.03400
C245        C  0.16025250  0.02351472  0.29844645    -0.13000
C246        C  0.19246989  0.04958085  0.31207276    -0.08700
C247        C  0.20340059  0.09596253  0.30420617     0.06900
C248        C  0.18064534  0.11564533  0.28411690    -0.13800
S249        S  0.09810183  0.00798801  0.26053747    -0.30700
H250        H  0.15159087  0.98812341  0.30424435     0.11100
S251        S  0.24747348  0.13155129  0.31839503    -0.27800
H252        H  0.18938108  0.15114890  0.27843392     0.08400
H253        H  0.15518446  0.12060422  0.16644226     0.26800
H254        H  0.10287588  0.96633643  0.27419342     0.21600
H255        H  0.27757167  0.09347912  0.32356198     0.26900
H256        H  0.07126356  0.12116311  0.28984974     0.15700
C257        C  0.04100588  0.65310346  0.98629686    -0.11500
C258        C  0.00182705  0.67541755  0.99625869     0.15000
C259        C  0.96884309  0.69656412  0.98050119     0.01900
C260        C  0.97643130  0.69588407  0.95542738    -0.15900
C261        C  0.01702533  0.67584346  0.94548874    -0.10700
C262        C  0.04886730  0.65269310  0.96124797     0.08600
C263        C  0.99672352  0.67596889  0.02309492     0.09700
S264        S  0.91730817  0.72677517  0.99115550    -0.25000
H265        H  0.95174799  0.71377140  0.94372392     0.19900
S266        S  0.09904709  0.62094439  0.94979003    -0.30700
H267        H  0.06553716  0.63588878  0.99831999     0.10200
C268        C  0.96203733  0.64959681  0.03499531     0.03400
C269        C  0.95631490  0.65409506  0.06008022    -0.13000
C270        C  0.98535917  0.68340933  0.07394488    -0.08700
C271        C  0.02249856  0.70685081  0.06214142     0.06900
C272        C  0.02736320  0.70336125  0.03694889    -0.13800
S273        S  0.92509835  0.61005827  0.01823814    -0.30700
H274        H  0.92828379  0.63528547  0.06893955     0.11100
S275        S  0.06270023  0.74424787  0.07787187    -0.27800
H276        H  0.05481493  0.72290673  0.02797975     0.08400
H277        H  0.12004275  0.61114493  0.97219209     0.26800
H278        H  0.89827395  0.59430310  0.03791512     0.21600
H279        H  0.07573021  0.70868452  0.09434474     0.26900
H280        H  0.93557495  0.74069705  0.01351431     0.15700
C281        C  0.23817662  0.95974387  0.48716043    -0.11500
C282        C  0.28350613  0.95080215  0.49562785     0.15000
C283        C  0.31968365  0.94383569  0.47849005     0.01900
C284        C  0.30993472  0.94728701  0.45362207    -0.15900
C285        C  0.26493189  0.95839677  0.44536736    -0.10700
C286        C  0.22868091  0.96417300  0.46240508     0.08600
C287        C  0.29061624  0.94599800  0.52231837     0.09700
S288        S  0.37934486  0.93267570  0.48713632    -0.25000
H289        H  0.33814146  0.94382391  0.44071221     0.19900
S290        S  0.16994349  0.97754891  0.45261308    -0.30700
H291        H  0.21014916  0.96364447  0.50011633     0.10200
C292        C  0.27956796  0.98275523  0.53857816     0.03400
C293        C  0.28049296  0.97418393  0.56366556    -0.13000
C294        C  0.29224444  0.92953224  0.57305273    -0.08700
C295        C  0.30701107  0.89399403  0.55666274     0.06900
C296        C  0.30527501  0.90247242  0.53168752    -0.13800
S297        S  0.26379838  0.04059576  0.52741126    -0.30700
H298        H  0.26977756  0.00175219  0.57595053     0.11100
S299        S  0.32779577  0.83705715  0.56691042    -0.27800
H300        H  0.31389875  0.87437287  0.51927064     0.08400
H301        H  0.14933228  0.97879034  0.47563757     0.26800
H302        H  0.25731243  0.06196276  0.55003001     0.21600
H303        H  0.34805774  0.82285592  0.54496838     0.26900
H304        H  0.37749832  0.95792954  0.50889022     0.15700
C305        C  0.15864015  0.76565208  0.78143574    -0.11500
C306        C  0.13540765  0.80417781  0.77095275     0.15000
C307        C  0.09127632  0.81749993  0.78024693     0.01900
C308        C  0.07217909  0.79283898  0.80003419    -0.15900
C309        C  0.09609474  0.75496828  0.81102282    -0.10700
C310        C  0.13947751  0.74072744  0.80095783     0.08600
C311        C  0.15638004  0.82623430  0.74896607     0.09700
S312        S  0.05762306  0.86570730  0.76782511    -0.25000
H313        H  0.03913412  0.80453317  0.80745658     0.19900
S314        S  0.17166933  0.68992111  0.81152375    -0.30700
H315        H  0.19173650  0.75419477  0.77395326     0.10200
C316        C  0.19103366  0.86142961  0.75020957     0.03400
C317        C  0.21197975  0.87855559  0.72879709    -0.13000
C318        C  0.19984918  0.86014104  0.70614813    -0.08700
C319        C  0.16445133  0.82533807  0.70507747     0.06900
C320        C  0.14318581  0.80911751  0.72637271    -0.13800
S321        S  0.20894348  0.88386039  0.77914852    -0.30700
H322        H  0.23893787  0.90507039  0.72974560     0.11100
S323        S  0.14527394  0.80148343  0.67657095    -0.27800
H324        H  0.11665984  0.78212631  0.72555049     0.08400
H325        H  0.13180544  0.66268504  0.81638734     0.26800
H326        H  0.24052092  0.91752438  0.77023255     0.21600
H327        H  0.10940588  0.77278077  0.68567396     0.26900
H328        H  0.09508296  0.89075889  0.75776422     0.15700
C329        C  0.02260936  0.24120900  0.98351622    -0.11500
C330        C  0.98354840  0.25428021  0.99729919     0.15000
C331        C  0.94171773  0.26590644  0.98523045     0.01900
C332        C  0.93854134  0.25972853  0.96019606    -0.15900
C333        C  0.97670088  0.24359131  0.94634116    -0.10700
C334        C  0.01997658  0.23663553  0.95829296     0.08600
C335        C  0.98658495  0.25197336  0.02416289     0.09700
S336        S  0.89067148  0.28739137  0.00085163    -0.25000
H337        H  0.90533738  0.26680861  0.95155942     0.19900
S338        S  0.07266019  0.21996832  0.94281129    -0.30700
H339        H  0.05522337  0.23330092  0.99257885     0.10200
C340        C  0.96436023  0.21578219  0.03741613     0.03400
C341        C  0.97050338  0.21283413  0.06256869    -0.13000
C342        C  0.99890415  0.24498073  0.07484192    -0.08700
C343        C  0.01922322  0.28255719  0.06168755     0.06900
C344        C  0.01330427  0.28536381  0.03656924    -0.13800
S345        S  0.93121521  0.17094169  0.02210392    -0.30700
H346        H  0.95567624  0.18351464  0.07247261     0.11100
S347        S  0.05300220  0.32800232  0.07602615    -0.27800
H348        H  0.02984877  0.31365555  0.02658607     0.08400
H349        H  0.06913171  0.25707285  0.92595397     0.26800
H350        H  0.91271603  0.14964178  0.04296160     0.21600
H351        H  0.02936792  0.32557721  0.09824534     0.26900
H352        H  0.91464388  0.30791420  0.02023668     0.15700
C353        C  0.00067158  0.01043469  0.92137132    -0.11500
C354        C  0.98733433  0.97709046  0.90421532     0.15000
C355        C  0.95085231  0.98786384  0.88790489     0.01900
C356        C  0.93253340  0.03364664  0.88723218    -0.15900
C357        C  0.94953818  0.06836554  0.90275661    -0.10700
C358        C  0.98188644  0.05588361  0.92089542     0.08600
C359        C  0.01391110  0.93258165  0.90287937     0.09700
S360        S  0.92887527  0.94599400  0.86633674    -0.25000
H361        H  0.90807983  0.04324463  0.87310844     0.19900
S362        S  0.00376758  0.09801732  0.94234589    -0.30700
H363        H  0.02771027  0.00180361  0.93433819     0.10200
C364        C  0.04412465  0.92282612  0.88338388     0.03400
C365        C  0.06354642  0.87758879  0.88121832    -0.13000
C366        C  0.05368829  0.84261717  0.89836200    -0.08700
C367        C  0.02747525  0.85414745  0.91908005     0.06900
C368        C  0.00771904  0.89898033  0.92111746    -0.13800
S369        S  0.05599324  0.96707179  0.86067965    -0.30700
H370        H  0.08300744  0.86825966  0.86515586     0.11100
S371        S  0.01442238  0.81157875  0.94232520    -0.27800
H372        H  0.98549880  0.90697575  0.93640604     0.08400
H373        H  0.96511795  0.12866288  0.94099063     0.26800
H374        H  0.08866364  0.94042695  0.84748362     0.21600
H375        H  0.05368208  0.78288277  0.93804811     0.26900
H376        H  0.93926758  0.90539937  0.87997847     0.15700
C377        C  0.00961999  0.39833142  0.84103180    -0.11500
C378        C  0.98608695  0.43134138  0.85527417     0.15000
C379        C  0.94639778  0.41716647  0.86854030     0.01900
C380        C  0.93386426  0.36943595  0.86905139    -0.15900
C381        C  0.95955609  0.33558640  0.85614852    -0.10700
C382        C  0.99635650  0.35100636  0.84096888     0.08600
C383        C  0.00537795  0.47953564  0.85676240     0.09700
S384        S  0.91181886  0.45779993  0.88608137    -0.25000
H385        H  0.90539598  0.35842560  0.88061158     0.19900
S386        S  0.02792553  0.31214835  0.82111425    -0.30700
H387        H  0.03920375  0.40938325  0.83024321     0.10200
C388        C  0.03089122  0.49437379  0.87708378     0.03400
C389        C  0.04787403  0.54067460  0.87794043    -0.13000
C390        C  0.03918027  0.57258183  0.85904732    -0.08700
C391        C  0.01526235  0.55691489  0.83828206     0.06900
C392        C  0.99886966  0.51056351  0.83731918    -0.13800
S393        S  0.04071573  0.45475259  0.90219447    -0.30700
H394        H  0.06549754  0.55294690  0.89398854     0.11100
S395        S  0.00389879  0.59458159  0.81262709    -0.27800
H396        H  0.98004737  0.49883505  0.82151202     0.08400
H397        H  0.98824166  0.28542957  0.81559905     0.26800
H398        H  0.06529820  0.48669311  0.91672678     0.21600
H399        H  0.04261617  0.62408883  0.81605757     0.26900
H400        H  0.92153262  0.49806886  0.87212885     0.15700
C401        C  0.73605112  0.96911205  0.48602023    -0.11500
C402        C  0.71342193  0.93452502  0.49983330     0.15000
C403        C  0.69159900  0.89670300  0.48788609     0.01900
C404        C  0.69492875  0.89315343  0.46269225    -0.15900
C405        C  0.71909469  0.92686553  0.44874578    -0.10700
C406        C  0.73969511  0.96548930  0.46084426     0.08600
C407        C  0.71566423  0.93798508  0.52661691     0.09700
S408        S  0.65959829  0.85148465  0.50372581    -0.25000
H409        H  0.67860081  0.86340827  0.45392330     0.19900
S410        S  0.77409848  0.00954272  0.44569105    -0.30700
H411        H  0.75293532  0.99820148  0.49508772     0.10200
C412        C  0.74536159  0.90863180  0.54044061     0.03400
C413        C  0.74957666  0.91608758  0.56543054    -0.13000
C414        C  0.72516375  0.95272225  0.57696006    -0.08700
C415        C  0.69349371  0.98036836  0.56318029     0.06900
C416        C  0.68967011  0.97315417  0.53825387    -0.13800
S417        S  0.78052677  0.86388287  0.52601860    -0.30700
H418        H  0.77405054  0.89501174  0.57577466     0.11100
S419        S  0.65653294  0.02510919  0.57627517    -0.27800
H420        H  0.66632229  0.99533305  0.52777024     0.08400
H421        H  0.80225839  0.97631049  0.43368154     0.26800
H422        H  0.79874443  0.84380832  0.54728206     0.21600
H423        H  0.64969110  0.00094096  0.59821777     0.26900
H424        H  0.64680155  0.87924828  0.52362351     0.15700
C425        C  0.06880439  0.96975653  0.60148641    -0.11500
C426        C  0.03313419  0.95067202  0.61563240     0.15000
C427        C  0.04258540  0.91140738  0.63068839     0.01900
C428        C  0.08833998  0.89451338  0.63269520    -0.15900
C429        C  0.12468265  0.91580298  0.61984254    -0.10700
C430        C  0.11439683  0.95259713  0.60336316     0.08600
C431        C  0.98735095  0.97449191  0.61584159     0.09700
S432        S  0.99854832  0.88378059  0.64916329    -0.25000
H433        H  0.09599236  0.86675472  0.64554107     0.19900
S434        S  0.15853582  0.98047027  0.58511847    -0.30700
H435        H  0.06143413  0.99937815  0.58964998     0.10200
C436        C  0.97400309  0.00357677  0.63525271     0.03400
C437        C  0.92750458  0.01854973  0.63710665    -0.13000
C438        C  0.89445575  0.00444850  0.62003813    -0.08700
C439        C  0.90902811  0.97938893  0.59940183     0.06900
C440        C  0.95546472  0.96476136  0.59744248    -0.13800
S441        S  0.01530133  0.01836849  0.65859559    -0.30700
H442        H  0.91589484  0.03709695  0.65308871     0.11100
S443        S  0.86874814  0.96089253  0.57636412    -0.27800
H444        H  0.96605289  0.94305543  0.58233063     0.08400
H445        H  0.18678950  0.93998930  0.58329113     0.26800
H446        H  0.98432330  0.04474787  0.67295268     0.21600
H447        H  0.83496347  0.99582258  0.58102483     0.26900
H448        H  0.96081064  0.89336730  0.63372094     0.15700
C449        C  0.47371189  0.88323674  0.64804642    -0.11500
C450        C  0.48875524  0.91256815  0.66684455     0.15000
C451        C  0.45544783  0.92975246  0.68345779     0.01900
C452        C  0.40803396  0.92025698  0.67990327    -0.15900
C453        C  0.39259908  0.89288814  0.66038847    -0.10700
C454        C  0.42629205  0.87325052  0.64465775     0.08600
C455        C  0.53827275  0.92842225  0.66717091     0.09700
S456        S  0.47113106  0.96483524  0.70925434    -0.25000
H457        H  0.38274436  0.93538644  0.69223073     0.19900
S458        S  0.41083682  0.83947418  0.61850121    -0.30700
H459        H  0.49889156  0.87015282  0.63506764     0.10200
C460        C  0.57558642  0.89629235  0.66959526     0.03400
C461        C  0.62162612  0.91274139  0.66826118    -0.13000
C462        C  0.63185636  0.96090398  0.66455876    -0.08700
C463        C  0.59409924  0.99325755  0.66334386     0.06900
C464        C  0.54810177  0.97660999  0.66422355    -0.13800
S465        S  0.56474789  0.83422682  0.67447152    -0.30700
H466        H  0.64984984  0.88737349  0.66941971     0.11100
S467        S  0.60174387  0.05604900  0.66077787    -0.27800
H468        H  0.51952574  0.00156191  0.66251313     0.08400
H469        H  0.37834596  0.87318556  0.61029973     0.26800
H470        H  0.61166116  0.81964433  0.67557835     0.21600
H471        H  0.63717069  0.05761314  0.67831852     0.26900
H472        H  0.51584728  0.94508168  0.71227212     0.15700
C473        C  0.92419661  0.11420906  0.77243537    -0.11500
C474        C  0.88015691  0.09255965  0.77274457     0.15000
C475        C  0.85343805  0.09454847  0.79410851     0.01900
C476        C  0.87011153  0.11938104  0.81410917    -0.15900
C477        C  0.91365984  0.14223996  0.81384733    -0.10700
C478        C  0.94106008  0.13909898  0.79259501     0.08600
C479        C  0.86029497  0.07291560  0.74999333     0.09700
S480        S  0.79696167  0.06717606  0.79679329    -0.25000
H481        H  0.84874041  0.12039540  0.83022816     0.19900
S482        S  0.99617123  0.16852287  0.78939191    -0.30700
H483        H  0.94472262  0.11341484  0.75602494     0.10200
C484        C  0.82728702  0.09878013  0.73649156     0.03400
C485        C  0.80625259  0.07833783  0.71618737    -0.13000
C486        C  0.81782183  0.03243831  0.70843058    -0.08700
C487        C  0.85264274  0.00733574  0.72155813     0.06900
C488        C  0.87275213  0.02745375  0.74228809    -0.13800
S489        S  0.81254545  0.15851409  0.74492312    -0.30700
H490        H  0.78072658  0.09866280  0.70616239     0.11100
S491        S  0.87480828  0.95072346  0.71231130    -0.27800
H492        H  0.89858551  0.00762244  0.75241951     0.08400
H493        H  0.98091308  0.20961335  0.80104517     0.26800
H494        H  0.77728034  0.16563719  0.72765316     0.21600
H495        H  0.88305805  0.96530199  0.68837675     0.26900
H496        H  0.80581944  0.03003972  0.78069771     0.15700
loop_ 
_geom_bond_atom_site_label_1 
_geom_bond_atom_site_label_2 
_geom_bond_distance 
_geom_bond_site_symmetry_2 
_ccdc_geom_bond_type 
O1            V9   1.916       .  S
O1           C11   1.269   1_545  A
O2            V9   1.913       .  S
O2           C12   1.266       .  A
O3            V9   1.894       .  S
O3           C13   1.262   1_545  A
O4            V9   1.899       .  S
O4           C14   1.265       .  A
O5           V10   1.922       .  S
O5           C14   1.270   1_565  A
O6           V10   1.918       .  S
O6           C13   1.270       .  A
O7           V10   1.875       .  S
O7           C12   1.258   1_565  A
O8           V10   1.888       .  S
O8           C11   1.262       .  A
V9           V10   2.083   1_545  T
C11         C462   1.497       .  S
C12         C438   1.460       .  S
C13         C414   1.490       .  S
C14         C486   1.505       .  S
O15          V23   1.917       .  S
O15          C25   1.270       .  A
O16          V23   1.915       .  S
O16          C26   1.267       .  A
O17          V23   1.896       .  S
O17          C27   1.264       .  A
O18          V23   1.896       .  S
O18          C28   1.264       .  A
O19          V24   1.927       .  S
O19          C28   1.271       .  A
O20          V24   1.921   1_455  S
O20          C27   1.270   1_455  A
O21          V24   1.869       .  S
O21          C26   1.256       .  A
O22          V24   1.881       .  S
O22          C25   1.259       .  A
V23          V24   2.083       .  T
C25         C381   1.484       .  S
C26         C357   1.460       .  S
C27         C333   1.502       .  S
C28         C477   1.501       .  S
O29          V37   1.922       .  S
O29          C39   1.271       .  A
O30          V37   1.918       .  S
O30          C40   1.269       .  A
O31          V37   1.886       .  S
O31          C41   1.260       .  A
O32          V37   1.891       .  S
O32          C42   1.261       .  A
O33          V38   1.934       .  S
O33          C42   1.273       .  A
O34          V38   1.931       .  S
O34          C41   1.274       .  A
O35          V38   1.876       .  S
O35          C40   1.257       .  A
O36          V38   1.887       .  S
O36          C39   1.260       .  A
V37          V38   2.083       .  T
C39         C453   1.487       .  S
C40         C429   1.468       .  S
C41         C294   1.500       .  S
C42         C318   1.496       .  S
O43          V51   1.915       .  S
O43          C53   1.269       .  A
O44          V51   1.914       .  S
O44          C54   1.267       .  A
O45          V51   1.887       .  S
O45          C55   1.260       .  A
O46          V51   1.892       .  S
O46          C56   1.262       .  A
O47          V52   1.929       .  S
O47          C56   1.273       .  A
O48          V52   1.929   1_655  S
O48          C55   1.273   1_655  A
O49          V52   1.871       .  S
O49          C54   1.256       .  A
O50          V52   1.883       .  S
O50          C53   1.259       .  A
V51          V52   2.085       .  T
C53         C390   1.474       .  S
C54         C366   1.458       .  S
C55         C261   1.497       .  S
C56         C309   1.498       .  S
O57          V65   1.915       .  S
O57          C67   1.269       .  A
O58          V65   1.921       .  S
O58          C68   1.269       .  A
O59          V65   1.893       .  S
O59          C69   1.261       .  A
O60          V65   1.898       .  S
O60          C70   1.263       .  A
O61          V66   1.928       .  S
O61          C70   1.272       .  A
O62          V66   1.923   1_655  S
O62          C69   1.271   1_655  A
O63          V66   1.874       .  S
O63          C68   1.258       .  A
O64          V66   1.887       .  S
O64          C67   1.260       .  A
V65          V66   2.085       .  T
C67         C213   1.484       .  S
C68         C198   1.471       .  S
C69         C342   1.486   1_455  S
C70         C237   1.508       .  S
O71          V79   1.929       .  S
O71          C81   1.272       .  A
O72          V79   1.925       .  S
O72          C82   1.271   1_545  A
O73          V79   1.886       .  S
O73          C83   1.259   1_545  A
O74          V79   1.892       .  S
O74          C84   1.261       .  A
O75          V80   1.933       .  S
O75          C84   1.273   1_565  A
O76          V80   1.934       .  S
O76          C83   1.273       .  A
O77          V80   1.866       .  S
O77          C82   1.257       .  A
O78          V80   1.873       .  S
O78          C81   1.257   1_565  A
V79          V80   2.083   1_545  T
C81         C174   1.483       .  S
C82         C150   1.482       .  S
C83         C285   1.485       .  S
C84         C246   1.499       .  S
O85          V93   1.918       .  S
O85          C95   1.269       .  A
O86          V93   1.914       .  S
O86          C96   1.267       .  A
O87          V93   1.895       .  S
O87          C97   1.263       .  A
O88          V93   1.895       .  S
O88          C98   1.263       .  A
O89          V94   1.922       .  S
O89          C98   1.270       .  A
O90          V94   1.918       .  S
O90          C97   1.270       .  A
O91          V94   1.873       .  S
O91          C96   1.257       .  A
O92          V94   1.884       .  S
O92          C95   1.261       .  A
V93          V94   2.085       .  T
C95         C165   1.487       .  S
C96         C141   1.461       .  S
C97         C405   1.496       .  S
C98         C126   1.496       .  S
O99         V107   1.914       .  S
O99         C109   1.269       .  A
O100        V107   1.917       .  S
O100        C110   1.268       .  A
O101        V107   1.888       .  S
O101        C111   1.261       .  A
O102        V107   1.891       .  S
O102        C112   1.261       .  A
O103        V108   1.930       .  S
O103        C112   1.272       .  A
O104        V108   1.928       .  S
O104        C111   1.272       .  A
O105        V108   1.877       .  S
O105        C110   1.258       .  A
O106        V108   1.891       .  S
O106        C109   1.261       .  A
V107        V108   2.084       .  T
C109        C222   1.483       .  S
C110        C189   1.467       .  S
C111        C270   1.496       .  S
C112        C117   1.504       .  S
C113        C114   1.399       .  A
C113        C118   1.403       .  A
C113        H123   1.083       .  S
C114        C119   1.498       .  S
C114        C115   1.417       .  A
C115        C116   1.412       .  A
C115        S120   1.805       .  S
C116        C117   1.410       .  A
C116        H121   1.083       .  S
C117        C118   1.424       .  A
C118        S122   1.810       .  S
C119        C124   1.414       .  A
C119        C128   1.403       .  A
S120        H136   1.405       .  S
S122        H133   1.407       .  S
C124        C125   1.412       .  A
C124        S129   1.805       .  S
C125        C126   1.409       .  A
C125        H130   1.083       .  S
C126        C127   1.417       .  A
C127        C128   1.401       .  A
C127        S131   1.803       .  S
C128        H132   1.084       .  S
S129        H134   1.407       .  S
S131        H135   1.408       .  S
C137        C138   1.403       .  A
C137        C142   1.397       .  A
C137        H147   1.084       .  S
C138        C143   1.474   1_655  S
C138        C139   1.409       .  A
C139        C140   1.398       .  A
C139        S144   1.803       .  S
C140        C141   1.403       .  A
C140        H145   1.084       .  S
C141        C142   1.409       .  A
C142        S146   1.804       .  S
C143        C148   1.402       .  A
C143        C152   1.405       .  A
S144        H160   1.406       .  S
S146        H157   1.405       .  S
C148        C149   1.396       .  A
C148        S153   1.808       .  S
C149        C150   1.411       .  A
C149        H154   1.083       .  S
C150        C151   1.411       .  A
C151        C152   1.403       .  A
C151        S155   1.797   1_565  S
C152        H156   1.084   1_455  S
S153        H158   1.407       .  S
S155        H159   1.407       .  S
C161        C162   1.404       .  A
C161        C166   1.402       .  A
C161        H171   1.084       .  S
C162        C167   1.482       .  S
C162        C163   1.409       .  A
C163        C164   1.400       .  A
C163        S168   1.805   1_565  S
C164        C165   1.409       .  A
C164        H169   1.084       .  S
C165        C166   1.416       .  A
C166        S170   1.801       .  S
C167        C172   1.406       .  A
C167        C176   1.404   1_565  A
S168        H184   1.405       .  S
S170        H181   1.408       .  S
C172        C173   1.402       .  A
C172        S177   1.807       .  S
C173        C174   1.409   1_565  A
C173        H178   1.083       .  S
C174        C175   1.414       .  A
C175        C176   1.404       .  A
C175        S179   1.800       .  S
C176        H180   1.084       .  S
S177        H182   1.407       .  S
S179        H183   1.406       .  S
C185        C186   1.405       .  A
C185        C190   1.401       .  A
C185        H195   1.084       .  S
C186        C191   1.477   1_655  S
C186        C187   1.408       .  A
C187        C188   1.397       .  A
C187        S192   1.803   1_655  S
C188        C189   1.404       .  A
C188        H193   1.084       .  S
C189        C190   1.410       .  A
C190        S194   1.802       .  S
C191        C196   1.405   1_465  A
C191        C200   1.404       .  A
S192        H208   1.405       .  S
S194        H205   1.404       .  S
C196        C197   1.401   1_655  A
C196        S201   1.805       .  S
C197        C198   1.406       .  A
C197        H202   1.083   1_455  S
C198        C199   1.409       .  A
C199        C200   1.401   1_545  A
C199        S203   1.798       .  S
C200        H204   1.084       .  S
S201        H206   1.407       .  S
S203        H207   1.406       .  S
C209        C210   1.401   1_655  A
C209        C214   1.402       .  A
C209        H219   1.084       .  S
C210        C215   1.484   1_455  S
C210        C211   1.413       .  A
C211        C212   1.401       .  A
C211        S216   1.804       .  S
C212        C213   1.404       .  A
C212        H217   1.083       .  S
C213        C214   1.418   1_455  A
C214        S218   1.804       .  S
C215        C220   1.411       .  A
C215        C224   1.401       .  A
S216        H232   1.405       .  S
S218        H229   1.408   1_655  S
C220        C221   1.405       .  A
C220        S225   1.807       .  S
C221        C222   1.405       .  A
C221        H226   1.083       .  S
C222        C223   1.417       .  A
C223        C224   1.401       .  A
C223        S227   1.803   1_655  S
C224        H228   1.084   1_655  S
S225        H230   1.407       .  S
S227        H231   1.407   1_455  S
C233        C234   1.400       .  A
C233        C238   1.402       .  A
C233        H243   1.084       .  S
C234        C239   1.500       .  S
C234        C235   1.417       .  A
C235        C236   1.412       .  A
C235        S240   1.804       .  S
C236        C237   1.411       .  A
C236        H241   1.083       .  S
C237        C238   1.425       .  A
C238        S242   1.802       .  S
C239        C244   1.414       .  A
C239        C248   1.402       .  A
S240        H256   1.405       .  S
S242        H253   1.403       .  S
C244        C245   1.415       .  A
C244        S249   1.805       .  S
C245        C246   1.408       .  A
C245        H250   1.082   1_545  S
C246        C247   1.420       .  A
C247        C248   1.404       .  A
C247        S251   1.804       .  S
C248        H252   1.084       .  S
S249        H254   1.406   1_545  S
S251        H255   1.408       .  S
C257        C258   1.401       .  A
C257        C262   1.407       .  A
C257        H267   1.083       .  S
C258        C263   1.495   1_456  S
C258        C259   1.417   1_455  A
C259        C260   1.407       .  A
C259        S264   1.805       .  S
C260        C261   1.406   1_655  A
C260        H265   1.083       .  S
C261        C262   1.421       .  A
C262        S266   1.810       .  S
C263        C268   1.409       .  A
C263        C272   1.406   1_655  A
S264        H280   1.405   1_556  S
S266        H277   1.407       .  S
C268        C269   1.406       .  A
C268        S273   1.806       .  S
C269        C270   1.410       .  A
C269        H274   1.083       .  S
C270        C271   1.416   1_655  A
C271        C272   1.407       .  A
C271        S275   1.798       .  S
C272        H276   1.084       .  S
S273        H278   1.407       .  S
S275        H279   1.407       .  S
C281        C282   1.404       .  A
C281        C286   1.404       .  A
C281        H291   1.083       .  S
C282        C287   1.499       .  S
C282        C283   1.420       .  A
C283        C284   1.410       .  A
C283        S288   1.803       .  S
C284        C285   1.403       .  A
C284        H289   1.084       .  S
C285        C286   1.413       .  A
C286        S290   1.808       .  S
C287        C292   1.415       .  A
C287        C296   1.400       .  A
S288        H304   1.406       .  S
S290        H301   1.406       .  S
C292        C293   1.411       .  A
C292        S297   1.806   1_565  S
C293        C294   1.407       .  A
C293        H298   1.082   1_565  S
C294        C295   1.422       .  A
C295        C296   1.405       .  A
C295        S299   1.808       .  S
C296        H300   1.083       .  S
S297        H302   1.407       .  S
S299        H303   1.407       .  S
C305        C306   1.401       .  A
C305        C310   1.403       .  A
C305        H315   1.084       .  S
C306        C311   1.495       .  S
C306        C307   1.416       .  A
C307        C308   1.410       .  A
C307        S312   1.804       .  S
C308        C309   1.408       .  A
C308        H313   1.084       .  S
C309        C310   1.420       .  A
C310        S314   1.803       .  S
C311        C316   1.413       .  A
C311        C320   1.398       .  A
S312        H328   1.404       .  S
S314        H325   1.408       .  S
C316        C317   1.415       .  A
C316        S321   1.804       .  S
C317        C318   1.406       .  A
C317        H322   1.082       .  S
C318        C319   1.420       .  A
C319        C320   1.405       .  A
C319        S323   1.809       .  S
C320        H324   1.083       .  S
S321        H326   1.407       .  S
S323        H327   1.406       .  S
C329        C330   1.404   1_455  A
C329        C334   1.407       .  A
C329        H339   1.084       .  S
C330        C335   1.493   1_556  S
C330        C331   1.411       .  A
C331        C332   1.403       .  A
C331        S336   1.805   1_556  S
C332        C333   1.412       .  A
C332        H337   1.083       .  S
C333        C334   1.420   1_655  A
C334        S338   1.799       .  S
C335        C340   1.414       .  A
C335        C344   1.403   1_655  A
S336        H352   1.406       .  S
S338        H349   1.408       .  S
C340        C341   1.408       .  A
C340        S345   1.806       .  S
C341        C342   1.404       .  A
C341        H346   1.083       .  S
C342        C343   1.416   1_655  A
C343        C344   1.405       .  A
C343        S347   1.803       .  S
C344        H348   1.084       .  S
S345        H350   1.407       .  S
S347        H351   1.407       .  S
C353        C354   1.399   1_445  A
C353        C358   1.395   1_455  A
C353        H363   1.084       .  S
C354        C359   1.473   1_655  S
C354        C355   1.415       .  A
C355        C356   1.399   1_565  A
C355        S360   1.805       .  S
C356        C357   1.400       .  A
C356        H361   1.084       .  S
C357        C358   1.411       .  A
C358        S362   1.804   1_655  S
C359        C364   1.412       .  A
C359        C368   1.398       .  A
S360        H376   1.406       .  S
S362        H373   1.407   1_455  S
C364        C365   1.402       .  A
C364        S369   1.807       .  S
C365        C366   1.400       .  A
C365        H370   1.083       .  S
C366        C367   1.411       .  A
C367        C368   1.394       .  A
C367        S371   1.802       .  S
C368        H372   1.084   1_455  S
S369        H374   1.407       .  S
S371        H375   1.406       .  S
C377        C378   1.398   1_455  A
C377        C382   1.397   1_455  A
C377        H387   1.084       .  S
C378        C383   1.479   1_655  S
C378        C379   1.413       .  A
C379        C380   1.402       .  A
C379        S384   1.804       .  S
C380        C381   1.405       .  A
C380        H385   1.084       .  S
C381        C382   1.418       .  A
C382        S386   1.801   1_655  S
C383        C388   1.410       .  A
C383        C392   1.401   1_455  A
S384        H400   1.405       .  S
S386        H397   1.404   1_455  S
C388        C389   1.404       .  A
C388        S393   1.807       .  S
C389        C390   1.403       .  A
C389        H394   1.083       .  S
C390        C391   1.415       .  A
C391        C392   1.399   1_455  A
C391        S395   1.804       .  S
C392        H396   1.084       .  S
S393        H398   1.407       .  S
S395        H399   1.407       .  S
C401        C402   1.403       .  A
C401        C406   1.404       .  A
C401        H411   1.084       .  S
C402        C407   1.490       .  S
C402        C403   1.412       .  A
C403        C404   1.404       .  A
C403        S408   1.805       .  S
C404        C405   1.411       .  A
C404        H409   1.084       .  S
C405        C406   1.418       .  A
C406        S410   1.800   1_565  S
C407        C412   1.412       .  A
C407        C416   1.401       .  A
S408        H424   1.405       .  S
S410        H421   1.407   1_545  S
C412        C413   1.408       .  A
C412        S417   1.806       .  S
C413        C414   1.406       .  A
C413        H418   1.083       .  S
C414        C415   1.418       .  A
C415        C416   1.402       .  A
C415        S419   1.804   1_565  S
C416        H420   1.084       .  S
S417        H422   1.407       .  S
S419        H423   1.408       .  S
C425        C426   1.398       .  A
C425        C430   1.396       .  A
C425        H435   1.084       .  S
C426        C431   1.473   1_455  S
C426        C427   1.414       .  A
C427        C428   1.399       .  A
C427        S432   1.805   1_455  S
C428        C429   1.400       .  A
C428        H433   1.081       .  S
C429        C430   1.414       .  A
C430        S434   1.803       .  S
C431        C436   1.410   1_565  A
C431        C440   1.399       .  A
S432        H448   1.405       .  S
S434        H445   1.406       .  S
C436        C437   1.401       .  A
C436        S441   1.807   1_655  S
C437        C438   1.400       .  A
C437        H442   1.084       .  S
C438        C439   1.411   1_545  A
C439        C440   1.397       .  A
C439        S443   1.804       .  S
C440        H444   1.084       .  S
S441        H446   1.407   1_455  S
S443        H447   1.407       .  S
C449        C450   1.405       .  A
C449        C454   1.403       .  A
C449        H459   1.084       .  S
C450        C455   1.491       .  S
C450        C451   1.412       .  A
C451        C452   1.401       .  A
C451        S456   1.804       .  S
C452        C453   1.407       .  A
C452        H457   1.084       .  S
C453        C454   1.415       .  A
C454        S458   1.798       .  S
C455        C460   1.408       .  A
C455        C464   1.405       .  A
S456        H472   1.406       .  S
S458        H469   1.406       .  S
C460        C461   1.404       .  A
C460        S465   1.808       .  S
C461        C462   1.412       .  A
C461        H466   1.082       .  S
C462        C463   1.417       .  A
C463        C464   1.403       .  A
C463        S467   1.800   1_565  S
C464        H468   1.084   1_565  S
S465        H470   1.407       .  S
S467        H471   1.408       .  S
C473        C474   1.407       .  A
C473        C478   1.411       .  A
C473        H483   1.083       .  S
C474        C479   1.495       .  S
C474        C475   1.411       .  A
C475        C476   1.402       .  A
C475        S480   1.805       .  S
C476        C477   1.409       .  A
C476        H481   1.083       .  S
C477        C478   1.418       .  A
C478        S482   1.799       .  S
C479        C484   1.408       .  A
C479        C488   1.404       .  A
S480        H496   1.405       .  S
S482        H493   1.403       .  S
C484        C485   1.406       .  A
C484        S489   1.807       .  S
C485        C486   1.410       .  A
C485        H490   1.082       .  S
C486        C487   1.422       .  A
C487        C488   1.410       .  A
C487        S491   1.800   1_545  S
C488        H492   1.084       .  S
S489        H494   1.406       .  S
S491        H495   1.408       .  S
