geometry optimzed in LAMMPS
_audit_creation_date              2020-12-01 
_audit_creation_method            'lammps2cif' 
_symmetry_space_group_name_H-M    'P1' 
_symmetry_Int_Tables_number       1 
_symmetry_cell_setting            triclinic 
loop_ 
_symmetry_equiv_pos_as_xyz 
  x,y,z 
_cell_length_a                    68.8948309 
_cell_length_b                    68.77438724759293 
_cell_length_c                    42.999038925605255 
_cell_angle_alpha                 90.3831642037064 
_cell_angle_beta                  89.74098174787636 
_cell_angle_gamma                 121.29957762795196 
loop_ 
_atom_site_label 
_atom_site_type_symbol 
_atom_site_fract_x 
_atom_site_fract_y 
_atom_site_fract_z 
_atom_site_charge 
O1          O  0.47187597  0.90864631  0.01354762    -0.57500
C2          C  0.48649121  0.91754228  0.41202413     0.75200
O3          O  0.53096667  0.97121237  0.48050507    -0.58600
C4          C  0.48513362  0.91375481  0.03666000     0.75100
C5          C  0.53483270  0.91184185  0.46264016     0.77500
Cd6        Cd  0.50590528  0.92956661  0.47341837     1.37500
O7          O  0.47447155  0.90703950  0.43562238    -0.57500
O8          O  0.51347863  0.89945790  0.46567190    -0.56300
C9          C  0.51475874  0.97498264  0.48115776     0.77500
O10         O  0.54345526  0.93312047  0.46630965    -0.58700
O11         O  0.50650095  0.93372025  0.41745911    -0.57100
O12         O  0.50606490  0.92353777  0.03038952    -0.57100
O13         O  0.49507840  0.95790620  0.47687957    -0.56300
O14         O  0.56943482  0.12896260  0.05721134    -0.57500
C15         C  0.56029871  0.12801247  0.45924244     0.75200
O16         O  0.51212900  0.06738878  0.00987820    -0.58600
C17         C  0.55736189  0.11855848  0.08076452     0.75100
C18         C  0.50789729  0.12582375  0.03101329     0.77500
Cd19       Cd  0.53752959  0.10905786  0.01920360     1.37500
O20         O  0.57242207  0.13301139  0.48352829    -0.57500
O21         O  0.52932999  0.13817826  0.03233395    -0.56300
C22         C  0.52826212  0.06353875  0.00884696     0.77500
O23         O  0.49965863  0.10517642  0.02312007    -0.58700
O24         O  0.53901347  0.11645369  0.46329868    -0.57100
O25         O  0.53673250  0.10380556  0.07543685    -0.57100
O26         O  0.54798015  0.08054928  0.01297184    -0.56300
O27         O  0.57849251  0.07273339  0.26587494    -0.57500
C28         C  0.63993465  0.13331230  0.28119616     0.75200
O29         O  0.57715999  0.12973205  0.23282946    -0.58600
C30         C  0.55751774  0.06597111  0.26572976     0.75100
C31         C  0.58388364  0.12732787  0.33172678     0.77500
Cd32       Cd  0.59189262  0.11379982  0.27145883     1.37500
O33         O  0.62638029  0.11193575  0.28146987    -0.57500
O34         O  0.58880444  0.11217508  0.32763812    -0.56300
C35         C  0.58536744  0.12531550  0.20924398     0.77500
O36         O  0.58191677  0.13648773  0.30735352    -0.58700
O37         O  0.63127337  0.14510061  0.27434233    -0.57100
O38         O  0.55279456  0.08130154  0.26966912    -0.57100
O39         O  0.59836862  0.11787621  0.21486469    -0.56300
O40         O  0.41558636  0.92640006  0.21923608    -0.57500
C41         C  0.48470857  0.97299837  0.23840803     0.75200
O42         O  0.46524188  0.90808190  0.26228551    -0.58600
C43         C  0.40288789  0.90501548  0.21592480     0.75100
C44         C  0.46053218  0.91686352  0.16420060     0.77500
Cd45       Cd  0.45090214  0.92574755  0.22617368     1.37500
O46         O  0.46368651  0.96608230  0.23805419    -0.57500
O47         O  0.45542446  0.93166103  0.17035868    -0.56300
C48         C  0.45536568  0.90999178  0.28608267     0.77500
O49         O  0.46233049  0.90642576  0.18721614    -0.58700
O50         O  0.48973130  0.95818777  0.23179013    -0.57100
O51         O  0.41245732  0.89359647  0.21874291    -0.57100
O52         O  0.44190404  0.91695689  0.28126935    -0.56300
O53         O  0.46827818  0.57815142  0.20065427    -0.57500
C54         C  0.48313157  0.58338612  0.29899569     0.75200
O55         O  0.52923674  0.57878912  0.24243532    -0.58600
C56         C  0.48022244  0.58209791  0.17626384     0.75100
C57         C  0.52785131  0.63967252  0.22943772     0.77500
Cd58       Cd  0.50134039  0.59099258  0.23668499     1.37500
O59         O  0.47011173  0.57644704  0.27547792    -0.57500
O60         O  0.50696761  0.62879723  0.23636403    -0.56300
C61         C  0.51469166  0.55766461  0.24025804     0.77500
O62         O  0.53727464  0.62798391  0.22783127    -0.58700
O63         O  0.50421255  0.59514311  0.29335741    -0.57100
O64         O  0.50109227  0.58950276  0.18029579    -0.57100
O65         O  0.49449996  0.55243823  0.23488907    -0.56300
O66         O  0.57832620  0.46517484  0.22542553    -0.57500
C67         C  0.56748761  0.46099319  0.32399076     0.75200
O68         O  0.51896994  0.46392084  0.25545299    -0.58600
C69         C  0.56532727  0.45763926  0.20191596     0.75100
C70         C  0.51993759  0.40329448  0.27101059     0.77500
Cd71       Cd  0.54684158  0.45174892  0.26349588     1.37500
O72         O  0.57980619  0.46733293  0.29971736    -0.57500
O73         O  0.54093903  0.41362711  0.26449067    -0.56300
C74         C  0.53333007  0.48501713  0.25847475     0.77500
O75         O  0.51108764  0.41549640  0.27232614    -0.58700
O76         O  0.54623771  0.45041242  0.31985491    -0.57100
O77         O  0.54423796  0.44616556  0.20748424    -0.57100
O78         O  0.55329460  0.49019504  0.26530336    -0.56300
O79         O  0.58219844  0.47148141  0.04966593    -0.57500
C80         C  0.59026907  0.48372041  0.45291184     0.75200
O81         O  0.58074006  0.52919236  0.00737688    -0.58600
C82         C  0.58726880  0.48388126  0.07387805     0.75100
C83         C  0.64420495  0.53101798  0.02611621     0.77500
Cd84       Cd  0.59662249  0.50410366  0.01356307     1.37500
O85         O  0.58356532  0.47022748  0.47588343    -0.57500
O86         O  0.63363399  0.50977061  0.02143634    -0.56300
C87         C  0.56009511  0.51303014  0.00835258     0.77500
O88         O  0.63300481  0.54081568  0.02237144    -0.58700
O89         O  0.59907747  0.50461193  0.45944933    -0.57100
O90         O  0.59614614  0.50502614  0.06960923    -0.57100
O91         O  0.55692871  0.49341259  0.01240851    -0.56300
O92         O  0.46025974  0.56972598  0.02667310    -0.57500
C93         C  0.45894761  0.55568711  0.42687590     0.75200
O94         O  0.46299781  0.51045066  0.49461118    -0.58600
C95         C  0.45232617  0.55588364  0.04928444     0.75100
C96         C  0.40026325  0.50886096  0.47430654     0.77500
Cd97       Cd  0.44780571  0.53589618  0.48762642     1.37500
O98         O  0.46208744  0.56804300  0.45068270    -0.57500
O99         O  0.41088759  0.53025064  0.47766317    -0.56300
C100        C  0.48365053  0.52658156  0.49367616     0.77500
O101        O  0.41139788  0.49919453  0.47962952    -0.58700
O102        O  0.45100440  0.53473620  0.43168084    -0.57100
O103        O  0.44229980  0.53497707  0.04220305    -0.57100
O104        O  0.48712593  0.54631682  0.48965188    -0.56300
O105        O  0.92834588  0.41568773  0.02721311    -0.57500
C106        C  0.97468590  0.48450573  0.01448314     0.75200
O107        O  0.90924022  0.46384124  0.48145311    -0.58600
C108        C  0.90710794  0.40265669  0.03087084     0.75100
C109        C  0.91723856  0.46159614  0.08073091     0.77500
Cd110      Cd  0.92715372  0.45066764  0.02019795     1.37500
O111        O  0.96765764  0.46347003  0.01264003    -0.57500
O112        O  0.92887126  0.45243125  0.07626084    -0.56300
C113        C  0.91450074  0.45600283  0.45821279     0.77500
O114        O  0.90975497  0.46610538  0.05658932    -0.58700
O115        O  0.95977743  0.48946928  0.02048354    -0.57100
O116        O  0.89528749  0.41182272  0.02826580    -0.57100
O117        O  0.92388267  0.44486194  0.46438685    -0.56300
O118        O  0.07432460  0.57843884  0.48848038    -0.57500
C119        C  0.13219455  0.64042259  0.47148762     0.75200
O120        O  0.13510298  0.58271236  0.01703404    -0.58600
C121        C  0.06799395  0.55755672  0.48883833     0.75100
C122        C  0.12835616  0.58550299  0.41895989     0.77500
Cd123      Cd  0.11500672  0.59281053  0.47957574     1.37500
O124        O  0.11115028  0.62586480  0.46907821    -0.57500
O125        O  0.11443568  0.59200911  0.42317311    -0.56300
C126        C  0.13096199  0.59114786  0.04064546     0.77500
O127        O  0.13633738  0.58183069  0.44325856    -0.58700
O128        O  0.14483162  0.63288651  0.47908315    -0.57100
O129        O  0.08327504  0.55305116  0.48314726    -0.57100
O130        O  0.12073854  0.60162509  0.03554492    -0.56300
O131        O  0.13863243  0.57688133  0.19060728    -0.57500
C132        C  0.13245803  0.56483301  0.29046221     0.75200
O133        O  0.07579911  0.51983137  0.23676104    -0.58600
C134        C  0.12837393  0.56423747  0.16731144     0.75100
C135        C  0.13607490  0.51760498  0.22127248     0.77500
Cd136      Cd  0.11729559  0.54593081  0.22930414     1.37500
O137        O  0.13760366  0.57772054  0.26697688    -0.57500
O138        O  0.14805850  0.53911204  0.22294450    -0.56300
C139        C  0.07133853  0.53557115  0.23824189     0.77500
O140        O  0.11480662  0.50875737  0.22476495    -0.58700
O141        O  0.12216359  0.54368880  0.28490026    -0.57100
O142        O  0.11289601  0.54399127  0.17316147    -0.57100
O143        O  0.08799356  0.55551938  0.23411331    -0.56300
O144        O  0.91176112  0.47373182  0.23268673    -0.57500
C145        C  0.92070433  0.48614216  0.33170779     0.75200
O146        O  0.97486459  0.53081666  0.26354841    -0.58600
C147        C  0.91841249  0.48649293  0.20892441     0.75100
C148        C  0.91443108  0.53375543  0.27426459     0.77500
Cd149      Cd  0.93328355  0.50524441  0.27012522     1.37500
O150        O  0.91218668  0.47357290  0.30781236    -0.57500
O151        O  0.90259486  0.51246277  0.26977635    -0.56300
C152        C  0.97921112  0.51498342  0.26298542     0.77500
O153        O  0.93577074  0.54240189  0.27608950    -0.58700
O154        O  0.93487565  0.50696238  0.32675796    -0.57100
O155        O  0.93067110  0.50765873  0.21401810    -0.57100
O156        O  0.96239474  0.49511246  0.26698910    -0.56300
O157        O  0.24324184  0.79864393  0.21250121    -0.57500
C158        C  0.25314330  0.81299478  0.11396419     0.75200
O159        O  0.24767382  0.86042632  0.17143063    -0.58600
C160        C  0.24864403  0.81135987  0.23642824     0.75100
C161        C  0.30674526  0.85632382  0.18533233     0.77500
Cd162      Cd  0.25868723  0.83135536  0.17557669     1.37500
O163        O  0.24523589  0.79996678  0.13735952    -0.57500
O164        O  0.29534326  0.83500350  0.18113147    -0.56300
C165        C  0.22649212  0.84606433  0.17043761     0.77500
O166        O  0.29596453  0.86662642  0.18276528    -0.58700
O167        O  0.26508355  0.83410894  0.11966353    -0.57100
O168        O  0.25762896  0.83241047  0.23156400    -0.57100
O169        O  0.22074171  0.82539371  0.17227313    -0.56300
O170        O  0.13274307  0.91092007  0.18767527    -0.57500
C171        C  0.13079988  0.90000350  0.08827156     0.75200
O172        O  0.13462636  0.85282361  0.15399497    -0.58600
C173        C  0.12361121  0.89769852  0.21064446     0.75100
C174        C  0.07385924  0.85104366  0.13932338     0.77500
Cd175      Cd  0.12163064  0.87990163  0.14924729     1.37500
O176        O  0.13522401  0.91249977  0.11224623    -0.57500
O177        O  0.08376650  0.87246205  0.14173051    -0.56300
C178        C  0.15560680  0.86760995  0.15611547     0.77500
O179        O  0.08601314  0.84234602  0.14338446    -0.58700
O180        O  0.12286216  0.87907816  0.09306410    -0.57100
O181        O  0.11242568  0.87665319  0.20435528    -0.57100
O182        O  0.16074503  0.88812193  0.15474322    -0.56300
O183        O  0.23696435  0.79194463  0.38623815    -0.57500
C184        C  0.22769689  0.79191619  0.48671702     0.75200
O185        O  0.18234178  0.79817773  0.41952927    -0.58600
C186        C  0.22319466  0.78409157  0.36351178     0.75100
C187        C  0.17900437  0.73544423  0.43909160     0.77500
Cd188      Cd  0.20731593  0.78263577  0.42601491     1.37500
O189        O  0.23975186  0.79500636  0.46265169    -0.57500
O190        O  0.20009121  0.74492049  0.43387153    -0.56300
C191        C  0.19837392  0.81886980  0.42042467     0.77500
O192        O  0.17011846  0.74749768  0.43557853    -0.58700
O193        O  0.20700309  0.78514089  0.48210829    -0.57100
O194        O  0.20233267  0.77442063  0.37026576    -0.57100
O195        O  0.21813809  0.82247291  0.42454119    -0.56300
O196        O  0.13599591  0.91222146  0.36362364    -0.57500
C197        C  0.15284327  0.92178855  0.46005339     0.75200
O198        O  0.19596381  0.91239074  0.40488931    -0.58600
C199        C  0.14771525  0.91932437  0.33886581     0.75100
C200        C  0.19842097  0.97486707  0.38971405     0.77500
Cd201      Cd  0.16995217  0.92687744  0.39789418     1.37500
O202        O  0.13963236  0.91558361  0.43678428    -0.57500
O203        O  0.17804370  0.96546606  0.39907573    -0.56300
C204        C  0.18082461  0.89169986  0.40014197     0.77500
O205        O  0.20629347  0.96192478  0.38592507    -0.58700
O206        O  0.17389256  0.93187626  0.45428791    -0.57100
O207        O  0.16905006  0.92984985  0.34200261    -0.57100
O208        O  0.16136350  0.88784257  0.39306883    -0.56300
O209        O  0.90584800  0.79863027  0.39550165    -0.57500
C210        C  0.89314606  0.79310236  0.29449674     0.75200
O211        O  0.84808247  0.73548306  0.34763606    -0.58600
C212        C  0.89604183  0.78357572  0.41637818     0.75100
C213        C  0.84594870  0.79405086  0.37173008     0.77500
Cd214      Cd  0.87499841  0.77680494  0.35616877     1.37500
O215        O  0.90636360  0.79763819  0.31750775    -0.57500
O216        O  0.86733450  0.80644582  0.36977227    -0.56300
C217        C  0.86361129  0.73076981  0.34569528     0.77500
O218        O  0.83732823  0.77313046  0.36514455    -0.58700
O219        O  0.87220677  0.78272608  0.30088042    -0.57100
O220        O  0.87733829  0.76609452  0.40885889    -0.57100
O221        O  0.88379797  0.74733176  0.34819220    -0.56300
O222        O  0.80331491  0.57018422  0.35371918    -0.57500
C223        C  0.81319359  0.58189322  0.25465156     0.75200
O224        O  0.85886128  0.63424431  0.32348352    -0.58600
C225        C  0.81694403  0.57635545  0.37655304     0.75100
C226        C  0.86251366  0.57606060  0.30073874     0.77500
Cd227      Cd  0.83346501  0.59296428  0.31503247     1.37500
O228        O  0.80074998  0.57358120  0.27862671    -0.57500
O229        O  0.84138965  0.56321456  0.30540267    -0.56300
C230        C  0.84313106  0.63867806  0.32300908     0.77500
O231        O  0.87083890  0.59725339  0.30486612    -0.58700
O232        O  0.83423336  0.59515887  0.25916476    -0.57100
O233        O  0.83782334  0.58864644  0.37012778    -0.57100
O234        O  0.82329784  0.62198152  0.31832174    -0.56300
O235        O  0.96366428  0.77796949  0.11992509    -0.57500
C236        C  0.89330628  0.73249704  0.10273625     0.75200
O237        O  0.91611703  0.79964961  0.14340300    -0.58600
C238        C  0.97710995  0.79915341  0.11598486     0.75100
C239        C  0.92526749  0.78803429  0.04475832     0.77500
Cd240      Cd  0.92921864  0.77923872  0.10868939     1.37500
O241        O  0.91387907  0.73791525  0.10542016    -0.57500
O242        O  0.93244363  0.77541609  0.05366053    -0.56300
C243        C  0.92019729  0.79240250  0.16817026     0.77500
O244        O  0.92187244  0.79907407  0.06574391    -0.58700
O245        O  0.88966511  0.74867604  0.10488069    -0.57100
O246        O  0.96816444  0.81042875  0.10782299    -0.57100
O247        O  0.92771197  0.77921902  0.16482605    -0.56300
O248        O  0.75429998  0.59739961  0.05485650    -0.57500
C249        C  0.82271203  0.63944551  0.07272445     0.75200
O250        O  0.79750675  0.57288854  0.10267034    -0.58600
C251        C  0.73969726  0.57630143  0.05647557     0.75100
C252        C  0.79255939  0.57804174  0.50355411     0.77500
Cd253      Cd  0.78692379  0.59279888  0.06435939     1.37500
O254        O  0.80196211  0.63336736  0.07496207    -0.57500
O255        O  0.78745160  0.59302285  0.50810498    -0.56300
C256        C  0.78996311  0.57848733  0.12587196     0.77500
O257        O  0.79672496  0.57062581  0.02792766    -0.58700
O258        O  0.82655525  0.62405308  0.06465901    -0.57100
O259        O  0.74719545  0.56340761  0.06275838    -0.57100
O260        O  0.77980625  0.58890660  0.11979612    -0.56300
O261        O  0.80620874  0.90421534  0.35877553    -0.57500
C262        C  0.79648421  0.89181033  0.45834437     0.75200
O263        O  0.74111315  0.84877530  0.40085907    -0.58600
C264        C  0.79549004  0.89216262  0.33526583     0.75100
C265        C  0.79870266  0.84180271  0.39370841     0.77500
Cd266      Cd  0.78278997  0.87316954  0.39692035     1.37500
O267        O  0.80380166  0.90466833  0.43468201    -0.57500
O268        O  0.81161250  0.86277560  0.39984027    -0.56300
C269        C  0.73759419  0.86503471  0.40454931     0.77500
O270        O  0.77784935  0.83490853  0.38981948    -0.58700
O271        O  0.78434247  0.87064618  0.45305576    -0.57100
O272        O  0.77928117  0.87222412  0.34077898    -0.57100
O273        O  0.75495486  0.88484332  0.40350894    -0.56300
O274        O  0.57867372  0.80287659  0.39715639    -0.57500
C275        C  0.58825020  0.81489404  0.49615114     0.75200
O276        O  0.64141277  0.86103104  0.42919419    -0.58600
C277        C  0.58515276  0.81602102  0.37377765     0.75100
C278        C  0.58073095  0.86284152  0.43844727     0.77500
Cd279      Cd  0.59983812  0.83454003  0.43494655     1.37500
O280        O  0.57921657  0.80254360  0.47222824    -0.57500
O281        O  0.56901804  0.84152037  0.43445091    -0.56300
C282        C  0.64577667  0.84527938  0.42659490     0.77500
O283        O  0.60205538  0.87155433  0.44082774    -0.58700
O284        O  0.60214680  0.83580901  0.49131378    -0.57100
O285        O  0.59732836  0.83708843  0.37939612    -0.57100
O286        O  0.62907265  0.82520641  0.42934808    -0.56300
O287        O  0.59812481  0.74824421  0.19240110    -0.57500
C288        C  0.64409315  0.81852100  0.18010834     0.75200
O289        O  0.57888498  0.79668015  0.14827897    -0.58600
C290        C  0.57682175  0.73564687  0.19624356     0.75100
C291        C  0.58593017  0.79083309  0.24682541     0.77500
Cd292      Cd  0.59704373  0.78336221  0.18541882     1.37500
O293        O  0.63775261  0.79768769  0.17674388    -0.57500
O294        O  0.60035805  0.78516074  0.24131337    -0.56300
C295        C  0.58311131  0.78859469  0.12435176     0.77500
O296        O  0.57674206  0.79401156  0.22339598    -0.58700
O297        O  0.62865683  0.82252487  0.18699091    -0.57100
O298        O  0.56541779  0.74516922  0.19272888    -0.57100
O299        O  0.59187448  0.77665996  0.12925904    -0.56300
O300        O  0.78218910  0.95928056  0.13815159    -0.57500
C301        C  0.73787411  0.88963328  0.15634072     0.75200
O302        O  0.80514446  0.91418130  0.11052137    -0.58600
C303        C  0.80350600  0.97305341  0.13868914     0.75100
C304        C  0.79928691  0.92095471  0.20891213     0.77500
Cd305      Cd  0.78463102  0.92520752  0.14789234     1.37500
O306        O  0.74371828  0.91044114  0.15668227    -0.57500
O307        O  0.79050021  0.93282128  0.20374523    -0.56300
C308        C  0.79575572  0.91654989  0.08669447     0.77500
O309        O  0.80300192  0.91223787  0.18520983    -0.58700
O310        O  0.75358765  0.88575586  0.15100118    -0.57100
O311        O  0.81554305  0.96463216  0.14530640    -0.57100
O312        O  0.78162414  0.92270992  0.09155964    -0.56300
O313        O  0.46770226  0.23566958  0.02643530    -0.57500
C314        C  0.45876865  0.22085358  0.12507117     0.75200
O315        O  0.40307663  0.17843409  0.06452007    -0.58600
C316        C  0.45944057  0.22657805  0.50153510     0.75100
C317        C  0.46163046  0.17363364  0.05743871     0.77500
Cd318      Cd  0.44481602  0.20356237  0.06264747     1.37500
O319        O  0.46547632  0.23424249  0.10196372    -0.57500
O320        O  0.47430995  0.19495439  0.06069757    -0.56300
C321        C  0.39926063  0.19460950  0.06553165     0.77500
O322        O  0.44034894  0.16556548  0.05691643    -0.58700
O323        O  0.44666624  0.19987297  0.11876832    -0.57100
O324        O  0.44507462  0.20260013  0.00644969    -0.57100
O325        O  0.41648162  0.21449359  0.06436374    -0.56300
O326        O  0.24191642  0.13504203  0.05651244    -0.57500
C327        C  0.25233688  0.14991387  0.15495203     0.75200
O328        O  0.30416951  0.19346541  0.08424328    -0.58600
C329        C  0.24796370  0.14729482  0.03228424     0.75100
C330        C  0.24420504  0.19628716  0.10030438     0.77500
Cd331      Cd  0.26268032  0.16776297  0.09251298     1.37500
O332        O  0.24283901  0.13675914  0.13180749    -0.57500
O333        O  0.23218410  0.17495884  0.09638929    -0.56300
C334        C  0.30834019  0.17753653  0.08567726     0.77500
O335        O  0.26556041  0.20517745  0.09788926    -0.58700
O336        O  0.26626132  0.17057059  0.14873253    -0.57100
O337        O  0.25875168  0.16861663  0.03640501    -0.57100
O338        O  0.29152705  0.15791916  0.09095676    -0.56300
O339        O  0.26401668  0.08242496  0.35167240    -0.57500
C340        C  0.31095396  0.15165034  0.33688984     0.75200
O341        O  0.24725804  0.13230670  0.30559224    -0.58600
C342        C  0.24293803  0.07035612  0.35770317     0.75100
C343        C  0.25445763  0.12862085  0.40562232     0.77500
Cd344      Cd  0.26359634  0.11789033  0.34435357     1.37500
O345        O  0.30383449  0.13064926  0.33362105    -0.57500
O346        O  0.26917853  0.12330144  0.40005462    -0.56300
C347        C  0.24971781  0.12217579  0.28248668     0.77500
O348        O  0.24383848  0.12964862  0.38218907    -0.58700
O349        O  0.29621182  0.15647053  0.34467828    -0.57100
O350        O  0.23165856  0.08008186  0.35547565    -0.57100
O351        O  0.25662195  0.10885851  0.28876949    -0.56300
O352        O  0.41072747  0.24632742  0.31797614    -0.57500
C353        C  0.47409871  0.30739848  0.30308500     0.75200
O354        O  0.47083364  0.24895127  0.35230410    -0.58600
C355        C  0.40412428  0.22533316  0.31825194     0.75100
C356        C  0.46135964  0.24964779  0.25197988     0.77500
Cd357      Cd  0.45149776  0.25945212  0.31316098     1.37500
O358        O  0.45260412  0.29546091  0.30553638    -0.57500
O359        O  0.45067281  0.25971251  0.25702949    -0.56300
C360        C  0.46435762  0.25580569  0.37540072     0.77500
O361        O  0.46778159  0.24362714  0.27581139    -0.58700
O362        O  0.48471328  0.29720060  0.30775575    -0.57100
O363        O  0.41941152  0.22051056  0.31506570    -0.57100
O364        O  0.45334509  0.26532736  0.36914931    -0.56300
O365        O  0.80013083  0.24018388  0.28052572    -0.57500
C366        C  0.79082097  0.22705790  0.37785966     0.75200
O367        O  0.74796315  0.17162041  0.30867298    -0.58600
C368        C  0.79474842  0.22761828  0.25648337     0.75100
C369        C  0.81913454  0.19553551  0.32416356     0.77500
Cd370      Cd  0.78506599  0.20757867  0.31723013     1.37500
O371        O  0.79787876  0.23973314  0.35404380    -0.57500
O372        O  0.82371859  0.21552313  0.31894306    -0.56300
C373        C  0.73646545  0.18123689  0.31087927     0.77500
O374        O  0.79815023  0.18031889  0.32495588    -0.58700
O375        O  0.77995832  0.20580782  0.37301185    -0.57100
O376        O  0.78497460  0.20642681  0.26107328    -0.57100
O377        O  0.74763826  0.20224898  0.31733127    -0.56300
O378        O  0.91101685  0.12980832  0.37978468    -0.57500
C379        C  0.92097328  0.14671560  0.28189070     0.75200
O380        O  0.91021313  0.18912479  0.34031702    -0.58600
C381        C  0.91476356  0.14199942  0.40395561     0.75100
C382        C  0.97247482  0.18911055  0.35557548     0.77500
Cd383      Cd  0.92454802  0.16286977  0.34432875     1.37500
O384        O  0.91304005  0.13300910  0.30457777    -0.57500
O385        O  0.96172044  0.16789312  0.35044837    -0.56300
C386        C  0.88936822  0.17343493  0.34025594     0.77500
O387        O  0.96110084  0.19885034  0.35351972    -0.58700
O388        O  0.93173359  0.16770071  0.28870870    -0.57100
O389        O  0.92235045  0.16293767  0.39977760    -0.57100
O390        O  0.88533170  0.15338953  0.34296298    -0.56300
O391        O  0.80312405  0.24430454  0.02982154    -0.57500
C392        C  0.81835338  0.25243232  0.12809076     0.75200
O393        O  0.86227409  0.24400647  0.07133987    -0.58600
C394        C  0.81607283  0.24973793  0.50589608     0.75100
C395        C  0.86100027  0.30620617  0.05928083     0.77500
Cd396      Cd  0.83562850  0.25782435  0.06597770     1.37500
O397        O  0.80507669  0.24523185  0.10483769    -0.57500
O398        O  0.83980199  0.29474615  0.06402204    -0.56300
C399        C  0.84690132  0.22308276  0.06926065     0.77500
O400        O  0.87106521  0.29507845  0.05848729    -0.58700
O401        O  0.83941426  0.26329079  0.12213487    -0.57100
O402        O  0.83654091  0.25792110  0.00991938    -0.57100
O403        O  0.82693694  0.21877722  0.06474056    -0.56300
O404        O  0.90724857  0.12755119  0.05447601    -0.57500
C405        C  0.89785916  0.12563175  0.15312391     0.75200
O406        O  0.85102779  0.13070270  0.08778314    -0.58600
C407        C  0.89379582  0.11918151  0.03152773     0.75100
C408        C  0.85103871  0.06853011  0.10538439     0.77500
Cd409      Cd  0.87712365  0.11618618  0.09334680     1.37500
O410        O  0.91006925  0.12993911  0.12892838    -0.57500
O411        O  0.87222426  0.07925074  0.10044004    -0.56300
C412        C  0.86666834  0.15157245  0.08865215     0.77500
O413        O  0.84112466  0.07967739  0.10232441    -0.58700
O414        O  0.87685721  0.11757402  0.14905403    -0.57100
O415        O  0.87278945  0.10788998  0.03780629    -0.57100
O416        O  0.88662575  0.15564948  0.09238672    -0.56300
O417        O  0.24021592  0.46750602  0.22942103    -0.57500
C418        C  0.22873713  0.46199544  0.13038374     0.75200
O419        O  0.18303599  0.40660038  0.17913489    -0.58600
C420        C  0.22731870  0.46003109  0.25309923     0.75100
C421        C  0.18282710  0.46908416  0.19627392     0.77500
Cd422      Cd  0.20891094  0.44771954  0.19116963     1.37500
O423        O  0.24128725  0.46712243  0.15428290    -0.57500
O424        O  0.20398023  0.47972213  0.19117399    -0.56300
C425        C  0.19800265  0.40145667  0.18404939     0.77500
O426        O  0.17300939  0.44753626  0.19813139    -0.58700
O427        O  0.20756172  0.45178577  0.13521519    -0.57100
O428        O  0.20630314  0.44708079  0.24768104    -0.57100
O429        O  0.21689056  0.41733601  0.19404810    -0.56300
O430        O  0.14276005  0.24505747  0.17813760    -0.57500
C431        C  0.15632907  0.25587889  0.07969274     0.75200
O432        O  0.19954272  0.30875125  0.15328829    -0.58600
C433        C  0.15515801  0.25185913  0.20229778     0.75100
C434        C  0.20267002  0.24869609  0.13236425     0.77500
Cd435      Cd  0.17476696  0.26772961  0.14147038     1.37500
O436        O  0.14365698  0.24687369  0.10332421    -0.57500
O437        O  0.18173887  0.23723759  0.13908075    -0.56300
C438        C  0.18381161  0.31306250  0.15024415     0.77500
O439        O  0.21170538  0.27016788  0.13169956    -0.58700
O440        O  0.17689852  0.27064069  0.08514927    -0.57100
O441        O  0.17629796  0.26461156  0.19765677    -0.57100
O442        O  0.16473682  0.29669349  0.14153221    -0.56300
O443        O  0.28977342  0.44143377  0.44914742    -0.57500
C444        C  0.22282738  0.39964781  0.42967806     0.75200
O445        O  0.24970333  0.46980556  0.47772392    -0.58600
C446        C  0.30458986  0.46223499  0.44497593     0.75100
C447        C  0.25218845  0.46300151  0.38118499     0.77500
Cd448      Cd  0.25736413  0.44667557  0.44014592     1.37500
O449        O  0.24373699  0.40706186  0.42593524    -0.57500
O450        O  0.26493254  0.45505672  0.38501435    -0.56300
C451        C  0.25288174  0.46111469  0.50163085     0.77500
O452        O  0.24312544  0.46535564  0.40552895    -0.58700
O453        O  0.21802553  0.41386518  0.44026625    -0.57100
O454        O  0.29720451  0.47500536  0.43741541    -0.57100
O455        O  0.25767368  0.44594578  0.49664181    -0.56300
O456        O  0.08228880  0.26034810  0.38212167    -0.57500
C457        C  0.15080794  0.30759792  0.39837176     0.75200
O458        O  0.13004087  0.24172340  0.42921776    -0.58600
C459        C  0.06916751  0.23892137  0.38316737     0.75100
C460        C  0.12778941  0.24934577  0.32970874     0.77500
Cd461      Cd  0.11749691  0.25996713  0.39051317     1.37500
O462        O  0.12974764  0.30042336  0.39850172    -0.57500
O463        O  0.11786010  0.26029921  0.33371570    -0.56300
C464        C  0.12299885  0.24774513  0.45257174     0.77500
O465        O  0.13279765  0.24259090  0.35411391    -0.58700
O466        O  0.15611463  0.29291019  0.39245137    -0.57100
O467        O  0.07857279  0.22761423  0.38874509    -0.57100
O468        O  0.11224407  0.25757568  0.44668995    -0.56300
C469        C  0.18217388  0.36865834  0.42943579    -0.20000
C470        C  0.20477712  0.37590774  0.42157339    -0.06500
C471        C  0.20927334  0.36064112  0.40530404     0.14300
C472        C  0.19116507  0.33887719  0.39740735    -0.20000
C473        C  0.16860773  0.33159246  0.40544682    -0.06500
C474        C  0.16410296  0.34675161  0.42188362     0.14300
C475        C  0.14051806  0.33993162  0.43252283    -0.23400
H476        H  0.17855418  0.38016259  0.44191112     0.15600
H477        H  0.19474889  0.32733079  0.38496600     0.15600
C478        C  0.23295203  0.36686354  0.39595425    -0.23300
H479        H  0.14039091  0.35373060  0.44591841     0.05900
H480        H  0.13362169  0.32483963  0.44788481     0.09100
H481        H  0.12925707  0.33600178  0.41209582     0.09100
H482        H  0.24367701  0.37070551  0.41697323     0.09100
H483        H  0.24050358  0.38179667  0.38024791     0.09100
H484        H  0.23304538  0.35277222  0.38331969     0.05800
C485        C  0.15042654  0.24931266  0.49109064    -0.20000
C486        C  0.12867905  0.24542083  0.48508696    -0.06500
C487        C  0.11569151  0.23937314  0.01194893     0.14300
C488        C  0.12449780  0.24239877  0.04219468    -0.20000
C489        C  0.14746867  0.25002627  0.04737116    -0.06500
C490        C  0.16146559  0.25252886  0.02151688     0.14300
C491        C  0.18586448  0.25894723  0.02532774    -0.23400
H492        H  0.16148182  0.25147681  0.47170201     0.15600
H493        H  0.11356572  0.23981523  0.06191277     0.15600
C494        C  0.09094330  0.23153709  0.00804367    -0.23300
H495        H  0.19355658  0.25842095  0.00281423     0.05900
H496        H  0.18681048  0.24686691  0.04134962     0.09100
H497        H  0.19622117  0.27654457  0.03456559     0.09100
H498        H  0.08083671  0.22132304  0.49084400     0.09100
H499        H  0.09003201  0.25120490  0.49466421     0.09100
H500        H  0.08188941  0.22725945  0.03072292     0.05800
C501        C  0.11781781  0.24052575  0.27390841    -0.20000
C502        C  0.13355254  0.24549770  0.29786713    -0.06500
C503        C  0.15527039  0.24945547  0.29026441     0.14300
C504        C  0.16119178  0.24989782  0.25885079    -0.20000
C505        C  0.14600392  0.24644946  0.23464454    -0.06500
C506        C  0.12362202  0.24070776  0.24244344     0.14300
C507        C  0.10603403  0.23581280  0.21797363    -0.23400
H508        H  0.10106263  0.23723348  0.27984797     0.15600
H509        H  0.17822698  0.25392440  0.25315370     0.15600
C510        C  0.17279881  0.25470127  0.31497131    -0.23300
H511        H  0.08955920  0.23170984  0.22841957     0.05900
H512        H  0.10290965  0.22094649  0.20369659     0.09100
H513        H  0.11193207  0.25091242  0.20289169     0.09100
H514        H  0.16656272  0.23998781  0.33088490     0.09100
H515        H  0.17621745  0.27000414  0.32842355     0.09100
H516        H  0.18912792  0.25812124  0.30480954     0.05800
C517        C  0.26041730  0.46323861  0.05721608    -0.20000
C518        C  0.24718228  0.46524120  0.03409364    -0.06500
C519        C  0.23014226  0.46976272  0.04321220     0.14300
C520        C  0.22546210  0.47001603  0.07505094    -0.20000
C521        C  0.23767600  0.46640266  0.09807897    -0.06500
C522        C  0.25601114  0.46388933  0.08901243     0.14300
C523        C  0.27014074  0.46046322  0.11249437    -0.23400
H524        H  0.27384308  0.46030523  0.05033778     0.15600
H525        H  0.21159879  0.47225380  0.08200400     0.15600
C526        C  0.21606649  0.47320994  0.01970682    -0.23300
H527        H  0.28342107  0.45828863  0.10117172     0.05900
H528        H  0.25914613  0.44497954  0.12643074     0.09100
H529        H  0.27884449  0.47553155  0.12809555     0.09100
H530        H  0.20686747  0.45792557  0.00457551     0.09100
H531        H  0.23656627  0.49531440  0.50422905     0.09100
H532        H  0.20326003  0.47611620  0.03104109     0.05800
C533        C  0.26346436  0.47237543  0.32592862    -0.20000
C534        C  0.24732423  0.46761514  0.34937051    -0.06500
C535        C  0.22578737  0.46379395  0.34091637     0.14300
C536        C  0.22029529  0.46259117  0.30926259    -0.20000
C537        C  0.23579575  0.46543564  0.28570272    -0.06500
C538        C  0.25810748  0.47157251  0.29426148     0.14300
C539        C  0.27609832  0.47624719  0.27040969    -0.23400
H540        H  0.28014466  0.47578345  0.33240664     0.15600
H541        H  0.20340523  0.45860421  0.30287798     0.15600
C542        C  0.20801220  0.45969971  0.36486701    -0.23300
H543        H  0.29243290  0.48057872  0.28141916     0.05900
H544        H  0.27938485  0.49091311  0.25581219     0.09100
H545        H  0.27048898  0.46097215  0.25555601     0.09100
H546        H  0.21453974  0.47475604  0.38044625     0.09100
H547        H  0.20356666  0.44436697  0.37873630     0.09100
H548        H  0.19215583  0.45687704  0.35396954     0.05800
C549        C  0.20441152  0.34954451  0.17922491    -0.20000
C550        C  0.18723443  0.33572607  0.15797878    -0.06500
C551        C  0.17316849  0.34337620  0.14614960     0.14300
C552        C  0.17687126  0.36461626  0.15570265    -0.20000
C553        C  0.19411848  0.37849717  0.17687773    -0.06500
C554        C  0.20797854  0.37067106  0.18902010     0.14300
C555        C  0.22625606  0.38403868  0.21284882    -0.23400
H556        H  0.21493426  0.34358022  0.18874047     0.15600
H557        H  0.16636647  0.37057522  0.14612136     0.15600
C558        C  0.15450913  0.32964429  0.12296200    -0.23300
H559        H  0.23412966  0.37446345  0.22123703     0.05900
H560        H  0.21886836  0.38783113  0.23332640     0.09100
H561        H  0.24003969  0.40009229  0.20254132     0.09100
H562        H  0.14103268  0.31364758  0.13379763     0.09100
H563        H  0.16158075  0.32569411  0.10227098     0.09100
H564        H  0.14633661  0.33899440  0.11482952     0.05800
C565        C  0.84271774  0.16545343  0.06716110    -0.20000
C566        C  0.86194816  0.17017238  0.08438986    -0.06500
C567        C  0.87638807  0.19253035  0.09613324     0.14300
C568        C  0.87111216  0.20934792  0.09032930    -0.20000
C569        C  0.85185232  0.20461404  0.07314215    -0.06500
C570        C  0.83751256  0.18229597  0.06119659     0.14300
C571        C  0.81702914  0.17605495  0.04140614    -0.23400
H572        H  0.83181179  0.14846898  0.05779953     0.15600
H573        H  0.88200363  0.22631890  0.09974200     0.15600
C574        C  0.89707020  0.19883030  0.11549561    -0.23300
H575        H  0.80887085  0.15834787  0.03237493     0.05900
H576        H  0.82217855  0.18760289  0.02109249     0.09100
H577        H  0.80407137  0.17721403  0.05533658     0.09100
H578        H  0.90980821  0.19747747  0.10129803     0.09100
H579        H  0.89212337  0.18742595  0.13594183     0.09100
H580        H  0.90540481  0.21661322  0.12428313     0.05800
C581        C  0.03109216  0.20373388  0.38340532    -0.20000
C582        C  0.04419846  0.22721793  0.37765135    -0.06500
C583        C  0.03323095  0.23829080  0.36580739     0.14300
C584        C  0.00986447  0.22540262  0.35900511    -0.20000
C585        C  0.99702284  0.20178613  0.36373922    -0.06500
C586        C  0.00778529  0.19092046  0.37687397     0.14300
C587        C  0.99494159  0.16594561  0.38494585    -0.23400
H588        H  0.03916852  0.19516256  0.39303192     0.15600
H589        H  0.00161722  0.23383711  0.34947697     0.15600
C590        C  0.04582692  0.26353410  0.35982016    -0.23300
H591        H  0.00588972  0.16088145  0.39691747     0.05900
H592        H  0.98846484  0.15546513  0.36348600     0.09100
H593        H  0.98061538  0.16205697  0.40082195     0.09100
H594        H  0.05946420  0.26811897  0.34240194     0.09100
H595        H  0.05323475  0.27298882  0.38185727     0.09100
H596        H  0.03445968  0.26909483  0.35056199     0.05800
C597        C  0.93111520  0.15494152  0.22602483    -0.20000
C598        C  0.91725377  0.13913955  0.24887310    -0.06500
C599        C  0.89885111  0.11765856  0.23931155     0.14300
C600        C  0.89402470  0.11330074  0.20751823    -0.20000
C601        C  0.90698492  0.12967582  0.18499632    -0.06500
C602        C  0.92624352  0.15045392  0.19419668     0.14300
C603        C  0.94083984  0.16844090  0.17077664    -0.23400
H604        H  0.94538474  0.17130907  0.23312461     0.15600
H605        H  0.87935441  0.09726411  0.20017165     0.15600
C606        C  0.88337158  0.09963556  0.26218336    -0.23300
H607        H  0.95480589  0.18396249  0.18212899     0.05900
H608        H  0.93036470  0.17343475  0.15739984     0.09100
H609        H  0.94861141  0.16175037  0.15457415     0.09100
H610        H  0.87491830  0.10621343  0.27730257     0.09100
H611        H  0.89330280  0.09451800  0.27657603     0.09100
H612        H  0.86983210  0.08409209  0.25031249     0.05800
C613        C  0.92591457  0.14751004  0.45896930    -0.20000
C614        C  0.91086358  0.13306088  0.43596333    -0.06500
C615        C  0.89151911  0.11219508  0.44471499     0.14300
C616        C  0.88744732  0.10803964  0.97567558    -0.20000
C617        C  0.90171705  0.12337445  0.99879289    -0.06500
C618        C  0.92139739  0.14256689  0.49063201     0.14300
C619        C  0.93750204  0.16132935  0.01296353    -0.23400
H620        H  0.94094618  0.16335140  0.45208968     0.15600
H621        H  0.87232111  0.09229757  0.98256679     0.15600
C622        C  0.87513003  0.09581404  0.42086278    -0.23300
H623        H  0.95224721  0.17461232  0.50252962     0.05900
H624        H  0.94512405  0.15388317  0.02779325     0.09100
H625        H  0.92819510  0.16719596  0.02762908     0.09100
H626        H  0.88397057  0.08986311  0.40539995     0.09100
H627        H  0.86821203  0.10431320  0.40676572     0.09100
H628        H  0.86061672  0.08061445  0.43189260     0.05800
C629        C  0.82457700  0.26237099  0.18432981    -0.20000
C630        C  0.81015632  0.24776240  0.16075555    -0.06500
C631        C  0.78962548  0.22779379  0.16924486     0.14300
C632        C  0.78459753  0.22258505  0.20082565    -0.20000
C633        C  0.79954397  0.23654991  0.22431171    -0.06500
C634        C  0.81955055  0.25704837  0.21599040     0.14300
C635        C  0.83628718  0.27272164  0.24010880    -0.23400
H636        H  0.84029069  0.27769366  0.17792974     0.15600
H637        H  0.76918697  0.20695607  0.20723647     0.15600
C638        C  0.77352204  0.21106279  0.14539795    -0.23300
H639        H  0.85134924  0.28755397  0.22934320     0.05900
H640        H  0.84235712  0.26339996  0.25409073     0.09100
H641        H  0.82807893  0.27934711  0.25560802     0.09100
H642        H  0.78246351  0.20473257  0.13081882     0.09100
H643        H  0.76679271  0.21935659  0.13052656     0.09100
H644        H  0.75876068  0.19607104  0.15639611     0.05800
C645        C  0.78005357  0.22308991  0.43344190    -0.20000
C646        C  0.79576793  0.23601310  0.41005707    -0.06500
C647        C  0.81710855  0.25491669  0.41855622     0.14300
C648        C  0.82257757  0.25957675  0.45016141    -0.20000
C649        C  0.80742767  0.24578581  0.47356892    -0.06500
C650        C  0.78558013  0.22768612  0.46510299     0.14300
C651        C  0.76850852  0.21228514  0.48900749    -0.23400
H652        H  0.76368510  0.20863738  0.42685917     0.15600
H653        H  0.83921234  0.27363831  0.45662195     0.15600
C654        C  0.83482638  0.26935289  0.39466075    -0.23300
H655        H  0.75263352  0.19858594  0.47805046     0.05900
H656        H  0.76389113  0.22227274  0.50442675     0.09100
H657        H  0.77575461  0.20407713  0.50306333     0.09100
H658        H  0.82832930  0.27772201  0.37950423     0.09100
H659        H  0.83911444  0.25860530  0.38031354     0.09100
H660        H  0.85076415  0.28293885  0.40562750     0.05800
C661        C  0.83156032  0.16749623  0.32692871    -0.20000
C662        C  0.83732397  0.19026238  0.32898470    -0.06500
C663        C  0.86017342  0.20728239  0.33581202     0.14300
C664        C  0.87645670  0.20106121  0.33963458    -0.20000
C665        C  0.87081095  0.17836314  0.33699362    -0.06500
C666        C  0.84787596  0.16127346  0.33069406     0.14300
C667        C  0.84025240  0.13645660  0.32721492    -0.23400
H668        H  0.81414799  0.15442031  0.32188441     0.15600
H669        H  0.89384867  0.21416488  0.34472252     0.15600
C670        C  0.86776689  0.23206954  0.33969105    -0.23300
H671        H  0.82189047  0.12579721  0.32154898     0.05900
H672        H  0.84298185  0.12998036  0.34932742     0.09100
H673        H  0.84980167  0.13424414  0.30804165     0.09100
H674        H  0.85764650  0.23402189  0.35826866     0.09100
H675        H  0.86579849  0.23893900  0.31743191     0.09100
H676        H  0.88593880  0.24259039  0.34642215     0.05800
C677        C  0.34174624  0.19207532  0.34227300    -0.20000
C678        C  0.33502478  0.17000584  0.33186747    -0.06500
C679        C  0.35113075  0.16649498  0.31628699     0.14300
C680        C  0.37330011  0.18502494  0.31179269    -0.20000
C681        C  0.37998721  0.20703802  0.32232217    -0.06500
C682        C  0.36391802  0.21055847  0.33786954     0.14300
C683        C  0.37002173  0.23347000  0.35087316    -0.23400
H684        H  0.32958435  0.19494072  0.35428691     0.15600
H685        H  0.38556445  0.18225599  0.29987759     0.15600
C686        C  0.34525704  0.14350485  0.30389054    -0.23300
H687        H  0.35555441  0.23275658  0.36346909     0.05900
H688        H  0.37487780  0.24590348  0.33171686     0.09100
H689        H  0.38430402  0.23951588  0.36756099     0.09100
H690        H  0.33111134  0.13721810  0.28693262     0.09100
H691        H  0.34033446  0.13128201  0.32334228     0.09100
H692        H  0.35986798  0.14419482  0.29174950     0.05800
C693        C  0.24548458  0.23329708  0.10195698    -0.20000
C694        C  0.23373619  0.20985356  0.10844617    -0.06500
C695        C  0.21257271  0.19991539  0.12409766     0.14300
C696        C  0.20371830  0.21346493  0.13229577    -0.20000
C697        C  0.21500142  0.23673158  0.12519534    -0.06500
C698        C  0.23632376  0.24686157  0.10987275     0.14300
C699        C  0.24932571  0.27166472  0.10117690    -0.23400
H700        H  0.26175876  0.24097624  0.09023291     0.15600
H701        H  0.18751504  0.20556519  0.14423664     0.15600
C702        C  0.19915900  0.17510801  0.13310453    -0.23300
H703        H  0.26546016  0.27650044  0.08898822     0.05900
H704        H  0.25366525  0.28235937  0.12245164     0.09100
H705        H  0.23895002  0.27534556  0.08534674     0.09100
H706        H  0.20975129  0.17095021  0.14772225     0.09100
H707        H  0.19339420  0.16422610  0.11193904     0.09100
H708        H  0.18370746  0.17080895  0.14673359     0.05800
C709        C  0.24433974  0.11991332  0.19371422    -0.20000
C710        C  0.24824874  0.14167785  0.18760304    -0.06500
C711        C  0.24960433  0.15562709  0.21293999     0.14300
C712        C  0.24846288  0.14801342  0.24352170    -0.20000
C713        C  0.24649116  0.12703350  0.24974740    -0.06500
C714        C  0.24374277  0.11249547  0.22434271     0.14300
C715        C  0.24037149  0.08922538  0.22902583    -0.23400
H716        H  0.24293564  0.10907474  0.17435955     0.15600
H717        H  0.25029945  0.15912737  0.26273366     0.15600
C718        C  0.25218674  0.17857158  0.20811486    -0.23300
H719        H  0.23679531  0.07968786  0.20675272     0.05900
H720        H  0.22574177  0.07911654  0.24482475     0.09100
H721        H  0.25595880  0.09075651  0.23889484     0.09100
H722        H  0.23844834  0.17677762  0.19271462     0.09100
H723        H  0.26898580  0.19057845  0.19768208     0.09100
H724        H  0.25112508  0.18623123  0.23040046     0.05800
C725        C  0.24133483  0.15284324  0.47772144    -0.20000
C726        C  0.24434351  0.13772131  0.00050098    -0.06500
C727        C  0.25052514  0.12168812  0.99256876     0.14300
C728        C  0.25589062  0.12303445  0.46221482    -0.20000
C729        C  0.25025859  0.13302696  0.43820585    -0.06500
C730        C  0.24224905  0.14767109  0.44616767     0.14300
C731        C  0.23561718  0.15871088  0.42169276    -0.23400
H732        H  0.23618582  0.16482424  0.48383730     0.15600
H733        H  0.26179255  0.11161699  0.45635458     0.15600
C734        C  0.25782853  0.11108324  0.01690413    -0.23300
H735        H  0.23039699  0.17012675  0.43211062     0.05900
H736        H  0.22102960  0.14544513  0.40804991     0.09100
H737        H  0.25022789  0.16905834  0.40596819     0.09100
H738        H  0.24357876  0.10085341  0.03317960     0.09100
H739        H  0.27260703  0.12459609  0.03003720     0.09100
H740        H  0.26295912  0.09961456  0.00642002     0.05800
C741        C  0.46296828  0.22330858  0.21377845    -0.20000
C742        C  0.46493742  0.24432137  0.21974499    -0.06500
C743        C  0.46826644  0.25887571  0.19447673     0.14300
C744        C  0.46769014  0.25123870  0.16392694    -0.20000
C745        C  0.46346450  0.22929117  0.15778638    -0.06500
C746        C  0.46197895  0.21547652  0.18318501     0.14300
C747        C  0.45921889  0.19241941  0.17850792    -0.23400
H748        H  0.46088089  0.21237033  0.23314210     0.15600
H749        H  0.46936167  0.26209966  0.14467984     0.15600
C750        C  0.47249640  0.28251961  0.19938335    -0.23300
H751        H  0.46025233  0.18498529  0.20084452     0.05900
H752        H  0.47290658  0.19394607  0.16307439     0.09100
H753        H  0.44236662  0.18037932  0.16822592     0.09100
H754        H  0.48709600  0.29222308  0.21536189     0.09100
H755        H  0.45718030  0.28170453  0.20919261     0.09100
H756        H  0.47657856  0.29207849  0.17721411     0.05800
C757        C  0.46820747  0.23147644  0.41401624    -0.20000
C758        C  0.46773628  0.25126318  0.40803926    -0.06500
C759        C  0.46802118  0.26465260  0.43349325     0.14300
C760        C  0.46692474  0.25690195  0.46398625    -0.20000
C761        C  0.46502683  0.23594010  0.46967233    -0.06500
C762        C  0.46665077  0.22352089  0.44443983     0.14300
C763        C  0.46678325  0.20188244  0.44930824    -0.23400
H764        H  0.46843639  0.22140578  0.39467596     0.15600
H765        H  0.46619212  0.26663434  0.48341196     0.15600
C766        C  0.46935504  0.28703386  0.42890488    -0.23300
H767        H  0.46990821  0.19546054  0.42723139     0.05900
H768        H  0.45014634  0.18829976  0.45845082     0.09100
H769        H  0.48046310  0.20506978  0.46587092     0.09100
H770        H  0.45356307  0.28424343  0.41793643     0.09100
H771        H  0.48422512  0.29833890  0.41409153     0.09100
H772        H  0.47134827  0.29596344  0.45136299     0.05800
C773        C  0.35945310  0.16994218  0.08284324    -0.20000
C774        C  0.37598005  0.19045783  0.06925215    -0.06500
C775        C  0.37007161  0.20663080  0.06082996     0.14300
C776        C  0.34797629  0.20191260  0.06674644    -0.20000
C777        C  0.33149449  0.18148871  0.08072200    -0.06500
C778        C  0.33739734  0.16521938  0.08884088     0.14300
C779        C  0.32094023  0.14299991  0.10446069    -0.23400
H780        H  0.36396337  0.15759855  0.08946148     0.15600
H781        H  0.34350631  0.21428293  0.06012830     0.15600
C782        C  0.38663138  0.22867481  0.04495358    -0.23300
H783        H  0.32901148  0.13311643  0.11045494     0.05900
H784        H  0.30654271  0.13219889  0.08864983     0.09100
H785        H  0.31458386  0.14632362  0.12642210     0.09100
H786        H  0.39326287  0.22511767  0.02344401     0.09100
H787        H  0.40087251  0.23968800  0.06085230     0.09100
H788        H  0.37853689  0.23840256  0.03822489     0.05800
C789        C  0.81595747  0.03007692  0.10591680    -0.20000
C790        C  0.83871923  0.04430672  0.11479830    -0.06500
C791        C  0.84921703  0.03525745  0.13308828     0.14300
C792        C  0.83689643  0.01220114  0.14113881    -0.20000
C793        C  0.81434559  0.99769160  0.13150266    -0.06500
C794        C  0.80365781  0.00685296  0.11375983     0.14300
C795        C  0.77965326  0.99231149  0.10205799    -0.23400
H796        H  0.80790219  0.03706459  0.09211156     0.15600
H797        H  0.84511943  0.00539922  0.15495842     0.15600
C798        C  0.87322917  0.04976777  0.14500447    -0.23300
H799        H  0.77442328  0.00224804  0.08783769     0.05900
H800        H  0.76773316  0.98513700  0.12200133     0.09100
H801        H  0.77818504  0.97832725  0.08723038     0.09100
H802        H  0.87501687  0.06449301  0.15835388     0.09100
H803        H  0.88541303  0.05586603  0.12530216     0.09100
H804        H  0.87794991  0.04011976  0.16070282     0.05800
C805        C  0.68375978  0.83110190  0.16515494    -0.20000
C806        C  0.66815219  0.83708971  0.17536156    -0.06500
C807        C  0.67581098  0.86049767  0.17966110     0.14300
C808        C  0.69852273  0.87697447  0.17307469    -0.20000
C809        C  0.71405240  0.87099784  0.16248648    -0.06500
C810        C  0.70650426  0.84757500  0.15875067     0.14300
C811        C  0.72198553  0.83948937  0.14778798    -0.23400
H812        H  0.67810100  0.81329103  0.16187033     0.15600
H813        H  0.70420331  0.89478907  0.17637591     0.15600
C814        C  0.66045576  0.86858113  0.19121002    -0.23300
H815        H  0.71288643  0.82066350  0.14555795     0.05900
H816        H  0.73593941  0.84462894  0.16476999     0.09100
H817        H  0.72906171  0.84671779  0.12456200     0.09100
H818        H  0.65343198  0.86111339  0.21435811     0.09100
H819        H  0.64646937  0.86371756  0.17438391     0.09100
H820        H  0.66965284  0.88738304  0.19386770     0.05800
C821        C  0.57650078  0.77811319  0.06825824    -0.20000
C822        C  0.57942055  0.79358281  0.09201954    -0.06500
C823        C  0.58184805  0.81463876  0.08375552     0.14300
C824        C  0.58302117  0.82025277  0.05219441    -0.20000
C825        C  0.58161698  0.80541774  0.02849377    -0.06500
C826        C  0.57735530  0.78364775  0.03663216     0.14300
C827        C  0.57489468  0.76663769  0.01231400    -0.23400
H828        H  0.57435169  0.76185811  0.07447652     0.15600
H829        H  0.58582654  0.83677627  0.04595877     0.15600
C830        C  0.58452885  0.83190655  0.10782669    -0.23300
H831        H  0.57221252  0.75073518  0.02291284     0.05900
H832        H  0.59049187  0.77398200  0.99781451     0.09100
H833        H  0.55999781  0.76201128  0.99735594     0.09100
H834        H  0.59979610  0.83705601  0.12225776     0.09100
H835        H  0.56918562  0.82454619  0.12282939     0.09100
H836        H  0.58662673  0.84751904  0.09702641     0.05800
C837        C  0.57928747  0.78689442  0.33461673    -0.20000
C838        C  0.58035698  0.80742028  0.34134181    -0.06500
C839        C  0.57943390  0.82041626  0.31654460     0.14300
C840        C  0.57954955  0.81358851  0.28573981    -0.20000
C841        C  0.58104241  0.79444697  0.27912800    -0.06500
C842        C  0.57982498  0.78030868  0.30380515     0.14300
C843        C  0.57908532  0.75827951  0.29789339    -0.23400
H844        H  0.57947019  0.77665665  0.35353218     0.15600
H845        H  0.57991125  0.82405220  0.26674970     0.15600
C846        C  0.57849988  0.84158636  0.32217812    -0.23300
H847        H  0.57647907  0.74868427  0.31974206     0.05900
H848        H  0.59530519  0.76165416  0.28751227     0.09100
H849        H  0.56482160  0.74731385  0.28195049     0.09100
H850        H  0.59473541  0.85527774  0.33223347     0.09100
H851        H  0.56424370  0.83770284  0.33817921     0.09100
H852        H  0.57574608  0.84825557  0.30024367     0.05800
C853        C  0.80169609  0.88749905  0.01494134    -0.20000
C854        C  0.80073367  0.90053662  0.49080556    -0.06500
C855        C  0.80176822  0.92098790  0.49922432     0.14300
C856        C  0.80097810  0.92645893  0.03081356    -0.20000
C857        C  0.80039088  0.91220308  0.05452120    -0.06500
C858        C  0.80158192  0.89290365  0.04650706     0.14300
C859        C  0.80136261  0.87722139  0.07099344    -0.23400
H860        H  0.80148657  0.87208378  0.00878409     0.15600
H861        H  0.80027586  0.94138028  0.03704532     0.15600
C862        C  0.80224860  0.93711194  0.47522662    -0.23300
H863        H  0.80164754  0.86255771  0.06054980     0.05900
H864        H  0.78576394  0.87041683  0.08540594     0.09100
H865        H  0.81657506  0.88663408  0.08604714     0.09100
H866        H  0.78689543  0.92819995  0.46031468     0.09100
H867        H  0.81774726  0.94372493  0.46066602     0.09100
H868        H  0.80256017  0.95196449  0.48611483     0.05800
C869        C  0.80617390  0.92316556  0.29709591    -0.20000
C870        C  0.80075429  0.90085006  0.30294369    -0.06500
C871        C  0.79869358  0.88667260  0.27754062     0.14300
C872        C  0.80001303  0.89445622  0.24703581    -0.20000
C873        C  0.80308883  0.91593763  0.24114338    -0.06500
C874        C  0.80722849  0.93087091  0.26653579     0.14300
C875        C  0.81278019  0.95492573  0.26173509    -0.23400
H876        H  0.80835429  0.93422747  0.31655061     0.15600
H877        H  0.79733724  0.88313783  0.22769466     0.15600
C878        C  0.79522542  0.86335121  0.28232727    -0.23300
H879        H  0.81740015  0.96466686  0.28393305     0.05900
H880        H  0.79789249  0.95496102  0.25212589     0.09100
H881        H  0.82743901  0.96389122  0.24561002     0.09100
H882        H  0.77840570  0.85179624  0.29302536     0.09100
H883        H  0.80884962  0.86465799  0.29752946     0.09100
H884        H  0.79579868  0.85546116  0.25998647     0.05800
C885        C  0.69582166  0.83923651  0.40253470    -0.20000
C886        C  0.71436522  0.86087411  0.40981720    -0.06500
C887        C  0.71016235  0.87745141  0.42259989     0.14300
C888        C  0.68764114  0.87181922  0.42754643    -0.20000
C889        C  0.66912962  0.85005386  0.42060074    -0.06500
C890        C  0.67336433  0.83353813  0.40774533     0.14300
C891        C  0.65449533  0.80992035  0.39881326    -0.23400
H892        H  0.69890003  0.82654431  0.39262719     0.15600
H893        H  0.68448754  0.88447568  0.43740766     0.15600
C894        C  0.72910109  0.90090797  0.43196311    -0.23300
H895        H  0.66108746  0.79985024  0.38771461     0.05900
H896        H  0.64293153  0.81096872  0.38192027     0.09100
H897        H  0.64489309  0.80049930  0.41983313     0.09100
H898        H  0.73919819  0.91029159  0.41122380     0.09100
H899        H  0.74021117  0.89956530  0.44935519     0.09100
H900        H  0.72253229  0.91113245  0.44263902     0.05800
C901        C  0.88083823  0.69255623  0.08890594    -0.20000
C902        C  0.87476500  0.70864631  0.09620177    -0.06500
C903        C  0.85142924  0.70170945  0.09570918     0.14300
C904        C  0.83514835  0.67919152  0.08759104    -0.20000
C905        C  0.84123923  0.66316123  0.07997271    -0.06500
C906        C  0.86453991  0.67000314  0.08091399     0.14300
C907        C  0.87265050  0.65385219  0.07387816    -0.23400
H908        H  0.89860669  0.69768852  0.08918012     0.15600
H909        H  0.81738472  0.67408347  0.08726886     0.15600
C910        C  0.84321961  0.71761852  0.10388603    -0.23300
H911        H  0.89138309  0.66224976  0.07605648     0.05900
H912        H  0.86811230  0.64739232  0.04965710     0.09100
H913        H  0.86491834  0.63946229  0.09051005     0.09100
H914        H  0.84983188  0.73168496  0.08680121     0.09100
H915        H  0.84887519  0.72455363  0.12771272     0.09100
H916        H  0.82439129  0.70886700  0.10346117     0.05800
C917        C  0.77988085  0.57627331  0.18172680    -0.20000
C918        C  0.79355911  0.57453727  0.15873985    -0.06500
C919        C  0.81198844  0.57230780  0.16814892     0.14300
C920        C  0.81710559  0.57354455  0.19992091    -0.20000
C921        C  0.80428011  0.57674185  0.22258287    -0.06500
C922        C  0.78502556  0.57745277  0.21349471     0.14300
C923        C  0.77075604  0.58095045  0.23690395    -0.23400
H924        H  0.76561003  0.57775737  0.17474816     0.15600
H925        H  0.83177468  0.57280999  0.20711845     0.15600
C926        C  0.82710807  0.56980466  0.14509221    -0.23300
H927        H  0.75680449  0.58188986  0.22559090     0.05900
H928        H  0.78148664  0.59710540  0.24986785     0.09100
H929        H  0.76296464  0.56652964  0.25346187     0.09100
H930        H  0.83551513  0.58488912  0.12967759     0.09100
H931        H  0.81688144  0.55412805  0.13099162     0.09100
H932        H  0.84066892  0.56840068  0.15680176     0.05800
C933        C  0.78776223  0.56879784  0.41625142    -0.20000
C934        C  0.80891740  0.57141247  0.40929363    -0.06500
C935        C  0.82286050  0.57221975  0.43410523     0.14300
C936        C  0.81613361  0.57242834  0.46498575    -0.20000
C937        C  0.79625024  0.57251325  0.47160351    -0.06500
C938        C  0.78138797  0.56965848  0.44702858     0.14300
C939        C  0.75885656  0.56772468  0.45305200    -0.23400
H940        H  0.77680145  0.56769016  0.39744819     0.15600
H941        H  0.82722762  0.57412479  0.48395665     0.15600
C942        C  0.84498941  0.57323997  0.42844404    -0.23300
H943        H  0.74884471  0.56414132  0.43134326     0.05900
H944        H  0.76149134  0.58386159  0.46291103     0.09100
H945        H  0.74867660  0.55360968  0.46952388     0.09100
H946        H  0.85760048  0.58973371  0.41782129     0.09100
H947        H  0.84210440  0.55900373  0.41293842     0.09100
H948        H  0.85249633  0.57175406  0.45045008     0.05800
C949        C  0.81138374  0.79666888  0.36551510    -0.20000
C950        C  0.83203957  0.80391730  0.38080409    -0.06500
C951        C  0.83969787  0.82136485  0.40350475     0.14300
C952        C  0.82783895  0.83267358  0.40795069    -0.20000
C953        C  0.80812790  0.82669687  0.39096854    -0.06500
C954        C  0.79925068  0.80779048  0.37038793     0.14300
C955        C  0.77764024  0.79984927  0.35245548    -0.23400
H956        H  0.80523424  0.78292151  0.34872036     0.15600
H957        H  0.83425149  0.84658427  0.42453675     0.15600
C958        C  0.86006102  0.82784420  0.42372634    -0.23300
H959        H  0.77354590  0.78520547  0.33699289     0.05900
H960        H  0.77936997  0.81386784  0.33772308     0.09100
H961        H  0.76322503  0.79427652  0.36885855     0.09100
H962        H  0.87580661  0.83568347  0.40956958     0.09100
H963        H  0.85777594  0.81249430  0.43561009     0.09100
H964        H  0.86237591  0.84040227  0.44193719     0.05800
C965        C  0.92350488  0.80250855  0.25530693    -0.20000
C966        C  0.90150110  0.79798278  0.26168337    -0.06500
C967        C  0.88740765  0.79598250  0.23626513     0.14300
C968        C  0.89473329  0.79603485  0.20564036    -0.20000
C969        C  0.91564322  0.79793498  0.19969575    -0.06500
C970        C  0.93075542  0.80255578  0.22468394     0.14300
C971        C  0.95462642  0.80772909  0.21916828    -0.23400
H972        H  0.93474918  0.80488001  0.27440898     0.15600
H973        H  0.88345373  0.79313554  0.18633853     0.15600
C974        C  0.86449010  0.79343963  0.24088528    -0.23300
H975        H  0.96459171  0.81252125  0.24107062     0.05900
H976        H  0.96352156  0.82219749  0.20278535     0.09100
H977        H  0.95439996  0.79265140  0.20941477     0.09100
H978        H  0.86623021  0.80745626  0.25590839     0.09100
H979        H  0.85245362  0.77674234  0.25152743     0.09100
H980        H  0.85694593  0.79418546  0.21847881     0.05800
C981        C  0.89997824  0.76506844  0.46278595    -0.20000
C982        C  0.90539303  0.78543070  0.44807979    -0.06500
C983        C  0.91768297  0.80617138  0.46484717     0.14300
C984        C  0.92356192  0.80580189  0.49615709    -0.20000
C985        C  0.91963221  0.78818184  0.01162717    -0.06500
C986        C  0.90606063  0.76467059  0.49366539     0.14300
C987        C  0.89754088  0.74461943  0.01084044    -0.23400
H988        H  0.89059648  0.74914820  0.45002171     0.15600
H989        H  0.93671112  0.82465471  0.00884490     0.15600
C990        C  0.92384996  0.82853542  0.45035185    -0.23300
H991        H  0.88627024  0.73022476  0.99517084     0.05900
H992        H  0.88751066  0.74343879  0.03180183     0.09100
H993        H  0.91180288  0.74240439  0.01753668     0.09100
H994        H  0.90822590  0.82798251  0.44255445     0.09100
H995        H  0.93528210  0.83200026  0.43017039     0.09100
H996        H  0.93283499  0.84290284  0.46704805     0.05800
C997        C  0.86778235  0.67759432  0.34411884    -0.20000
C998        C  0.84775239  0.66207385  0.32841710    -0.06500
C999        C  0.83276978  0.66923467  0.31876801     0.14300
C1000       C  0.83837921  0.69165841  0.32498632    -0.20000
C1001       C  0.85853337  0.70721309  0.34043734    -0.06500
C1002       C  0.87337417  0.69996336  0.35034732     0.14300
C1003       C  0.89486230  0.71534239  0.36828132    -0.23400
H1004       H  0.87912663  0.67211808  0.35191567     0.15600
H1005       H  0.82704236  0.69718176  0.31732861     0.15600
C1006       C  0.81110883  0.65370237  0.30129297    -0.23300
H1007       H  0.90341172  0.70624280  0.37591997     0.05900
H1008       H  0.89083881  0.72195782  0.38942458     0.09100
H1009       H  0.90709647  0.72969048  0.35343994     0.09100
H1010       H  0.79921627  0.63924709  0.31626169     0.09100
H1011       H  0.81496317  0.64723463  0.27985286     0.09100
H1012       H  0.80226862  0.66263354  0.29420947     0.05800
C1013       C  0.20351273  0.01301654  0.39547118    -0.20000
C1014       C  0.21164121  0.99964491  0.38301363    -0.06500
C1015       C  0.23075451  0.00995036  0.36291507     0.14300
C1016       C  0.24080043  0.03312772  0.35550653    -0.20000
C1017       C  0.23204505  0.04618202  0.36708731    -0.06500
C1018       C  0.21332923  0.03601109  0.38780451     0.14300
C1019       C  0.20377065  0.04924534  0.40260631    -0.23400
H1020       H  0.18907242  0.00533639  0.41112544     0.15600
H1021       H  0.25524575  0.04097221  0.33986657     0.15600
C1022       C  0.24025855  0.99665890  0.34825843    -0.23300
H1023       H  0.19016838  0.03885133  0.41969984     0.05900
H1024       H  0.19617841  0.05474546  0.38458174     0.09100
H1025       H  0.21742444  0.06432604  0.41511941     0.09100
H1026       H  0.22695489  0.98241442  0.33412589     0.09100
H1027       H  0.24642833  0.98990752  0.36660836     0.09100
H1028       H  0.25481915  0.00740423  0.33263822     0.05800
C1029       C  0.17635349  0.83398247  0.39628000    -0.20000
C1030       C  0.19427969  0.83779756  0.41577568    -0.06500
C1031       C  0.20800564  0.85954342  0.42959126     0.14300
C1032       C  0.20338746  0.87678318  0.42346675    -0.20000
C1033       C  0.18538886  0.87296897  0.40402802    -0.06500
C1034       C  0.17174015  0.85120676  0.39009307     0.14300
C1035       C  0.15259280  0.84594569  0.36810146    -0.23400
H1036       H  0.16602170  0.81742935  0.38543322     0.12000
H1037       H  0.21369393  0.89327806  0.43446655     0.15600
C1038       C  0.22705762  0.86460470  0.45164616    -0.23300
H1039       H  0.14490867  0.82860949  0.35788716     0.05900
H1040       H  0.15904751  0.85829684  0.34864061     0.09100
H1041       H  0.13888906  0.84669201  0.38065555     0.09100
H1042       H  0.24064063  0.86360168  0.43916444     0.09100
H1043       H  0.22045549  0.85225669  0.47111208     0.09100
H1044       H  0.23490633  0.88197275  0.46180195     0.05800
C1045       C  0.03612634  0.81538729  0.14491812    -0.20000
C1046       C  0.04936428  0.83711702  0.13184324    -0.06500
C1047       C  0.03895547  0.84532690  0.11187487     0.14300
C1048       C  0.01557796  0.83201054  0.10650397    -0.20000
C1049       C  0.00203814  0.81074127  0.12063269    -0.06500
C1050       C  0.01251965  0.80215472  0.13990326     0.14300
C1051       C  0.99899880  0.77963140  0.15626231    -0.23400
H1052       H  0.04418548  0.80905938  0.16001177     0.15600
H1053       H  0.00772946  0.83852600  0.09134294     0.15600
C1054       C  0.05231837  0.86794014  0.09554900    -0.23300
H1055       H  0.00993231  0.77607444  0.17113489     0.05900
H1056       H  0.99066602  0.76565073  0.13890947     0.09100
H1057       H  0.98596129  0.77971690  0.17145064     0.09100
H1058       H  0.06647039  0.86867105  0.08206875     0.09100
H1059       H  0.05913737  0.88206153  0.11274868     0.09100
H1060       H  0.04161648  0.87068935  0.07905029     0.05800
C1061       C  0.11941668  0.89383330  0.03302811    -0.20000
C1062       C  0.13437662  0.90862187  0.05592480    -0.06500
C1063       C  0.15321981  0.92979684  0.04680154     0.14300
C1064       C  0.15748616  0.93477311  0.01490719    -0.20000
C1065       C  0.14442185  0.91643352  0.49243507    -0.06500
C1066       C  0.12580121  0.89480455  0.50039581     0.14300
C1067       C  0.11192579  0.87708402  0.47605824    -0.23400
H1068       H  0.10475056  0.87773677  0.04004771     0.15600
H1069       H  0.17128349  0.94864388  0.51003523     0.15600
C1070       C  0.16953358  0.94661836  0.07032807    -0.23300
H1071       H  0.09864668  0.86081934  0.48661044     0.05900
H1072       H  0.12311878  0.87342992  0.46170468     0.09100
H1073       H  0.10322326  0.88325060  0.46097753     0.09100
H1074       H  0.17706706  0.93865392  0.08429544     0.09100
H1075       H  0.16045521  0.95221370  0.08592814     0.09100
H1076       H  0.18363277  0.96200120  0.05901930     0.05800
C1077       C  0.11349023  0.88970408  0.26655927    -0.20000
C1078       C  0.12673846  0.90570226  0.24354022    -0.06500
C1079       C  0.14434429  0.92765261  0.25300950     0.14300
C1080       C  0.14956279  0.93206564  0.28476463    -0.20000
C1081       C  0.13769493  0.91530043  0.30737313    -0.06500
C1082       C  0.11875253  0.89418497  0.29830752     0.14300
C1083       C  0.10499432  0.87574605  0.32162738    -0.23400
H1084       H  0.09962601  0.87304924  0.25962421     0.15600
H1085       H  0.16381672  0.94843904  0.29191495     0.15600
C1086       C  0.15855965  0.94622863  0.23005965    -0.23300
H1087       H  0.09115777  0.86010717  0.31032080     0.05900
H1088       H  0.09706896  0.88179453  0.33859923     0.09100
H1089       H  0.11610012  0.87111095  0.33408491     0.09100
H1090       H  0.14745936  0.94989410  0.21576651     0.09100
H1091       H  0.16814266  0.94100111  0.21485898     0.09100
H1092       H  0.17115976  0.96231323  0.24187296     0.05800
C1093       C  0.26284671  0.81835403  0.05777910    -0.20000
C1094       C  0.24782749  0.80462272  0.08138690    -0.06500
C1095       C  0.22670242  0.78528762  0.07296786     0.14300
C1096       C  0.22084997  0.78086216  0.04142805    -0.20000
C1097       C  0.23532945  0.79527715  0.01798318    -0.06500
C1098       C  0.25682447  0.81403486  0.02620599     0.14300
C1099       C  0.27283024  0.83043632  0.00214561    -0.23400
H1100       H  0.27899353  0.83319377  0.06414174     0.15600
H1101       H  0.20440242  0.76642449  0.03504725     0.15600
C1102       C  0.20953065  0.77002056  0.09690838    -0.23300
H1103       H  0.28845947  0.84466180  0.01287980     0.05900
H1104       H  0.26433751  0.83786830  0.98913790     0.09100
H1105       H  0.27972691  0.81902490  0.48716666     0.09100
H1106       H  0.20475450  0.78006313  0.11197733     0.09100
H1107       H  0.21674520  0.76194700  0.11128581     0.09100
H1108       H  0.19373077  0.75616899  0.08599225     0.05800
C1109       C  0.25216200  0.80748752  0.32413945    -0.20000
C1110       C  0.23112443  0.78790588  0.33067690    -0.06500
C1111       C  0.21745233  0.77417784  0.30557451     0.14300
C1112       C  0.22430176  0.78155676  0.27483944    -0.20000
C1113       C  0.24421744  0.80239512  0.26859167    -0.06500
C1114       C  0.25884104  0.81500839  0.29355067     0.14300
C1115       C  0.28156672  0.83643951  0.28832405    -0.23400
H1116       H  0.26293646  0.81778292  0.34319036     0.15600
H1117       H  0.21343189  0.77157197  0.25567196     0.15600
C1118       C  0.19570060  0.75177408  0.31080074    -0.23300
H1119       H  0.29144199  0.84287426  0.31023760     0.05900
H1120       H  0.27924086  0.85014557  0.27923911     0.09100
H1121       H  0.29177016  0.83297800  0.27165891     0.09100
H1122       H  0.18280550  0.75455357  0.32200034     0.09100
H1123       H  0.19906988  0.74071032  0.32567101     0.09100
H1124       H  0.18832545  0.74258520  0.28856564     0.05800
C1125       C  0.19592061  0.87928272  0.16571004    -0.20000
C1126       C  0.17339766  0.86161889  0.16002243    -0.06500
C1127       C  0.16865283  0.83897327  0.15811980     0.14300
C1128       C  0.18642435  0.83481118  0.16144603    -0.20000
C1129       C  0.20894281  0.85242709  0.16701464    -0.06500
C1130       C  0.21369013  0.87505508  0.16934073     0.14300
C1131       C  0.23722914  0.89487971  0.17602615    -0.23400
H1132       H  0.19972761  0.89665452  0.16748502     0.15600
H1133       H  0.18256544  0.81742691  0.15962060     0.15600
C1134       C  0.14503654  0.81890939  0.15249819    -0.23300
H1135       H  0.23756761  0.91117182  0.17786810     0.05900
H1136       H  0.24896481  0.89672501  0.15694475     0.09100
H1137       H  0.24339916  0.89219423  0.19845918     0.09100
H1138       H  0.13844711  0.82092446  0.12999932     0.09100
H1139       H  0.13361829  0.81748323  0.17180250     0.09100
H1140       H  0.14471486  0.80260434  0.15137909     0.05800
C1141       C  0.88111292  0.53749805  0.26570666    -0.20000
C1142       C  0.90317121  0.54711510  0.27773460    -0.06500
C1143       C  0.91269931  0.56783114  0.29464928     0.14300
C1144       C  0.89925004  0.57730308  0.30103560    -0.20000
C1145       C  0.87660533  0.56660683  0.29098501    -0.06500
C1146       C  0.86776675  0.54696934  0.27189707     0.14300
C1147       C  0.84446797  0.53603508  0.25737447    -0.23400
H1148       H  0.87400274  0.52208384  0.25183286     0.15600
H1149       H  0.90619237  0.59269572  0.31490457     0.15600
C1150       C  0.93660970  0.57966282  0.30703385    -0.23300
H1151       H  0.84127601  0.52207987  0.24107381     0.05900
H1152       H  0.84288814  0.54890724  0.24400468     0.09100
H1153       H  0.83114020  0.52852527  0.27559300     0.09100
H1154       H  0.94879855  0.58449289  0.28744435     0.09100
H1155       H  0.93853928  0.56825380  0.32319194     0.09100
H1156       H  0.94103423  0.59546431  0.31999324     0.05800
C1157       C  0.16855076  0.51570609  0.20076232    -0.20000
C1158       C  0.14690419  0.50415074  0.21446190    -0.06500
C1159       C  0.13666831  0.48065757  0.22091742     0.14300
C1160       C  0.14857760  0.46961213  0.21396464    -0.20000
C1161       C  0.17049179  0.48136557  0.20087670    -0.06500
C1162       C  0.18045879  0.50480323  0.19382742     0.14300
C1163       C  0.20353288  0.51872464  0.17874826    -0.23400
H1164       H  0.17633885  0.53360792  0.19528532     0.15600
H1165       H  0.14085296  0.45172513  0.21944424     0.15600
C1166       C  0.11358592  0.46720046  0.23589950    -0.23300
H1167       H  0.20778529  0.53630145  0.17345071     0.05900
H1168       H  0.20387396  0.51067584  0.15644333     0.09100
H1169       H  0.21692555  0.52026204  0.19461536     0.09100
H1170       H  0.10051754  0.46671766  0.22037685     0.09100
H1171       H  0.11362591  0.47506897  0.25855198     0.09100
H1172       H  0.10870658  0.44932766  0.24035662     0.05800
C1173       C  0.03009572  0.50804176  0.24665393    -0.20000
C1174       C  0.04795078  0.53082417  0.24476721    -0.06500
C1175       C  0.04301233  0.54826566  0.24977805     0.14300
C1176       C  0.02056541  0.54236359  0.25599105    -0.20000
C1177       C  0.00266338  0.51959979  0.25748913    -0.06500
C1178       C  0.00762309  0.50214224  0.25280773     0.14300
C1179       C  0.98953113  0.47720016  0.25374292    -0.23400
H1180       H  0.03368984  0.49460435  0.24306547     0.15600
H1181       H  0.01698989  0.55580852  0.25963645     0.15600
C1182       C  0.06107251  0.57322426  0.24891132    -0.23300
H1183       H  0.99661361  0.46615940  0.24924450     0.05900
H1184       H  0.97655810  0.47325493  0.23559597     0.09100
H1185       H  0.98145405  0.47273800  0.27707614     0.09100
H1186       H  0.06895166  0.57780538  0.22546427     0.09100
H1187       H  0.07419168  0.57711446  0.26680680     0.09100
H1188       H  0.05401045  0.58423167  0.25382783     0.05800
C1189       C  0.16243844  0.68046749  0.48027259    -0.20000
C1190       C  0.14203590  0.66499242  0.46529317    -0.06500
C1191       C  0.13278908  0.67321906  0.44322573     0.14300
C1192       C  0.14479563  0.69651370  0.43578768    -0.20000
C1193       C  0.16582966  0.71159929  0.44954335    -0.06500
C1194       C  0.17438708  0.70362682  0.47283433     0.14300
C1195       C  0.19587948  0.71951514  0.49047656    -0.23400
H1196       H  0.16930924  0.67432673  0.49764266     0.15600
H1197       H  0.13818327  0.70282838  0.41829003     0.15600
C1198       C  0.11547788  0.67041875  0.99170396    -0.23300
H1199       H  0.19907921  0.71060787  0.50938574     0.05900
H1200       H  0.19447262  0.73346147  0.50121833     0.09100
H1201       H  0.21076082  0.72679370  0.47465397     0.09100
H1202       H  0.11934142  0.66404413  0.01303340     0.09100
H1203       H  0.11239449  0.64427822  0.41353723     0.09100
H1204       H  0.11265379  0.68435321  0.99861959     0.05800
C1205       C  0.13377360  0.56617501  0.07914401    -0.20000
C1206       C  0.13564928  0.58707618  0.07282454    -0.06500
C1207       C  0.13879650  0.60192483  0.09790115     0.14300
C1208       C  0.13792024  0.59458473  0.12859811    -0.20000
C1209       C  0.13344038  0.57264047  0.13486273    -0.06500
C1210       C  0.13239334  0.55864357  0.10979281     0.14300
C1211       C  0.12976816  0.53572461  0.11504745    -0.23400
H1212       H  0.13182310  0.55495111  0.06001172     0.15600
H1213       H  0.13937326  0.60554440  0.14781397     0.15600
C1214       C  0.14292135  0.62543704  0.09263712    -0.23300
H1215       H  0.13096221  0.52796029  0.09293345     0.05900
H1216       H  0.11292914  0.52377697  0.12540901     0.09100
H1217       H  0.14341622  0.53761172  0.13072764     0.09100
H1218       H  0.12756160  0.62440800  0.08281113     0.09100
H1219       H  0.15750614  0.63495256  0.07654813     0.09100
H1220       H  0.14697050  0.63529094  0.11469125     0.05800
C1221       C  0.13540768  0.59731511  0.36389305    -0.20000
C1222       C  0.13437559  0.58240807  0.38691270    -0.06500
C1223       C  0.13650434  0.56378078  0.37809785     0.14300
C1224       C  0.13744118  0.55937553  0.34630821    -0.20000
C1225       C  0.13671474  0.57333640  0.32309691    -0.06500
C1226       C  0.13673130  0.59317743  0.33216401     0.14300
C1227       C  0.13677740  0.60941821  0.30874355    -0.23400
H1228       H  0.13427056  0.61188202  0.37076283     0.15600
H1229       H  0.13780244  0.54437161  0.33951258     0.15600
C1230       C  0.13649390  0.54777302  0.40184934    -0.23300
H1231       H  0.13658430  0.62385816  0.32014253     0.05900
H1232       H  0.12148722  0.60041747  0.29373074     0.09100
H1233       H  0.15236514  0.61664499  0.29424482     0.09100
H1234       H  0.12055204  0.53999123  0.41565504     0.09100
H1235       H  0.15130351  0.55722685  0.41758022     0.09100
H1236       H  0.13770496  0.53380488  0.39076707     0.05800
C1237       C  0.87521182  0.36762013  0.05386069    -0.20000
C1238       C  0.89634947  0.37813374  0.03873765    -0.06500
C1239       C  0.90637797  0.36507224  0.03195197     0.14300
C1240       C  0.89459419  0.34180247  0.03946453    -0.20000
C1241       C  0.87316608  0.33117952  0.05390080    -0.06500
C1242       C  0.86358702  0.34451413  0.06179177     0.14300
C1243       C  0.84136201  0.33490075  0.07909566    -0.23400
H1244       H  0.86770315  0.37765083  0.05977804     0.15600
H1245       H  0.90206570  0.33174863  0.03350718     0.15600
C1246       C  0.92917148  0.37522922  0.01617665    -0.23300
H1247       H  0.83752685  0.34827463  0.08522236     0.05900
H1248       H  0.84212271  0.32698441  0.10112663     0.09100
H1249       H  0.82714985  0.32215294  0.06443758     0.09100
H1250       H  0.94256334  0.38856221  0.03126840     0.09100
H1251       H  0.93023685  0.38383827  0.49829768     0.09100
H1252       H  0.93386743  0.36227574  0.01157454     0.05800
C1253       C  0.91172609  0.45171801  0.13644450    -0.20000
C1254       C  0.91309019  0.46647469  0.11294186    -0.06500
C1255       C  0.91295697  0.48631653  0.12132364     0.14300
C1256       C  0.91322545  0.49167504  0.15302830    -0.20000
C1257       C  0.91339290  0.47761036  0.17654691    -0.06500
C1258       C  0.91181625  0.45693455  0.16804836     0.14300
C1259       C  0.91164944  0.44088485  0.19191509    -0.23400
H1260       H  0.91144514  0.43631471  0.13001016     0.15600
H1261       H  0.91418624  0.50740528  0.15948578     0.15600
C1262       C  0.91381412  0.50252492  0.09719205    -0.23300
H1263       H  0.91093329  0.42586104  0.18093609     0.05900
H1264       H  0.89649165  0.43452632  0.20711342     0.09100
H1265       H  0.92734483  0.44976864  0.20617992     0.09100
H1266       H  0.89853396  0.49368354  0.08215083     0.09100
H1267       H  0.92933839  0.50893624  0.08272819     0.09100
H1268       H  0.91416368  0.51742927  0.10796748     0.05800
C1269       C  0.91230513  0.48151801  0.41960271    -0.20000
C1270       C  0.91166848  0.46112993  0.42552019    -0.06500
C1271       C  0.91081040  0.44755555  0.39992621     0.14300
C1272       C  0.91245893  0.45561917  0.36947294    -0.20000
C1273       C  0.91527815  0.47699210  0.36381623    -0.06500
C1274       C  0.91422572  0.48968244  0.38916341     0.14300
C1275       C  0.91490682  0.51173928  0.38437574    -0.23400
H1276       H  0.91249994  0.49177031  0.43899299     0.15600
H1277       H  0.91270248  0.44564571  0.35000983     0.15600
C1278       C  0.90817270  0.42456233  0.40428930    -0.23300
H1279       H  0.91217678  0.51841637  0.40650463     0.05900
H1280       H  0.90131276  0.50900042  0.36793160     0.09100
H1281       H  0.93168558  0.52492737  0.37509564     0.09100
H1282       H  0.89303477  0.41371364  0.41893943     0.09100
H1283       H  0.92357466  0.42642254  0.41530742     0.09100
H1284       H  0.90581331  0.41561857  0.38174552     0.05800
C1285       C  0.00553722  0.52500075  0.01851635    -0.20000
C1286       C  0.99879894  0.50268534  0.00940227    -0.06500
C1287       C  0.01475090  0.49880530  0.99410797     0.14300
C1288       C  0.03731805  0.51670413  0.48744811    -0.20000
C1289       C  0.04419683  0.53919701  0.49577456    -0.06500
C1290       C  0.02851465  0.54332200  0.51139525     0.14300
C1291       C  0.03465827  0.56680682  0.52194156    -0.23400
H1292       H  0.99344253  0.52811814  0.03023344     0.15600
H1293       H  0.04924753  0.51339773  0.47562533     0.15600
C1294       C  0.00867562  0.47558315  0.98243327    -0.23300
H1295       H  0.01878753  0.56647764  0.03516091     0.05900
H1296       H  0.03859420  0.57802619  0.50149105     0.09100
H1297       H  0.04785607  0.57425341  0.03903531     0.09100
H1298       H  0.99461217  0.46830883  0.46582170     0.09100
H1299       H  0.00390551  0.46367771  0.00224608     0.09100
H1300       H  0.02312231  0.47600339  0.97019381     0.05800
C1301       C  0.36192371  0.47344213  0.47397242    -0.20000
C1302       C  0.37614757  0.49607173  0.46434937    -0.06500
C1303       C  0.36708864  0.50613481  0.44518455     0.14300
C1304       C  0.34397415  0.49386477  0.43786362    -0.20000
C1305       C  0.32931423  0.47192994  0.44944573    -0.06500
C1306       C  0.33855562  0.46123199  0.46697081     0.14300
C1307       C  0.32400939  0.43739624  0.47928225    -0.23400
H1308       H  0.36896224  0.46555659  0.48803146     0.15600
H1309       H  0.33715958  0.50189789  0.42365650     0.15600
C1310       C  0.38060578  0.53855095  0.94516549    -0.23300
H1311       H  0.33416396  0.43194048  0.49253209     0.05900
H1312       H  0.31580566  0.42527087  0.45965038     0.09100
H1313       H  0.31083693  0.43648966  0.49520652     0.09100
H1314       H  0.39501740  0.54251879  0.92942451     0.09100
H1315       H  0.38697490  0.54855013  0.96703327     0.09100
H1316       H  0.37002192  0.54416878  0.93343254     0.05800
C1317       C  0.70013265  0.54457012  0.06205757    -0.20000
C1318       C  0.71508323  0.56659287  0.05098808    -0.06500
C1319       C  0.70622896  0.57773057  0.03363675     0.14300
C1320       C  0.68290624  0.56593567  0.02639863    -0.20000
C1321       C  0.66831101  0.54337869  0.03596079    -0.06500
C1322       C  0.67696882  0.53286614  0.05498833     0.14300
C1323       C  0.66195208  0.50948208  0.06867631    -0.23400
H1324       H  0.70668013  0.53620727  0.07610382     0.15600
H1325       H  0.67615485  0.57413446  0.01242887     0.15600
C1326       C  0.72116390  0.60165879  0.02184799    -0.23300
H1327       H  0.67137937  0.50496094  0.08510054     0.05900
H1328       H  0.66096532  0.50368064  0.48801148     0.09100
H1329       H  0.64770678  0.50888601  0.08173450     0.09100
H1330       H  0.73454571  0.60257489  0.00634641     0.09100
H1331       H  0.72910993  0.61356379  0.04176389     0.09100
H1332       H  0.71135971  0.60740257  0.00833632     0.05800
C1333       C  0.54210261  0.53301038  0.49057695    -0.20000
C1334       C  0.54077024  0.51690290  0.00475988    -0.06500
C1335       C  0.51776171  0.49890633  0.00166147     0.14300
C1336       C  0.50063627  0.50400935  0.99751399    -0.20000
C1337       C  0.50277741  0.52274281  0.49788677    -0.06500
C1338       C  0.52466673  0.53742133  0.48509761     0.14300
C1339       C  0.52977698  0.55740139  0.46489197    -0.23400
H1340       H  0.55871644  0.54403483  0.48039558     0.15600
H1341       H  0.48319476  0.49016860  0.99498836     0.15600
C1342       C  0.51079430  0.47417728  0.00250127    -0.23300
H1343       H  0.54728503  0.56594309  0.45526910     0.05900
H1344       H  0.52836936  0.57029577  0.47871704     0.09100
H1345       H  0.51778290  0.55155476  0.44498900     0.09100
H1346       H  0.51526064  0.47015097  0.02536353     0.09100
H1347       H  0.51934207  0.47045445  0.98345570     0.09100
H1348       H  0.49219407  0.46263318  0.99936176     0.05800
C1349       C  0.51834380  0.36645462  0.27355673    -0.20000
C1350       C  0.50704126  0.37841440  0.27768263    -0.06500
C1351       C  0.48451698  0.36656618  0.28947619     0.14300
C1352       C  0.47445969  0.34356964  0.29779825    -0.20000
C1353       C  0.48605539  0.33186361  0.29450347    -0.06500
C1354       C  0.50823064  0.34345314  0.28156783     0.14300
C1355       C  0.52136019  0.33180991  0.27531573    -0.23400
H1356       H  0.53541310  0.37520494  0.26410512     0.15600
H1357       H  0.45735288  0.33467517  0.30715790     0.15600
C1358       C  0.47082587  0.37780107  0.29362544    -0.23300
H1359       H  0.53783176  0.34325781  0.26358988     0.05900
H1360       H  0.51138134  0.31684694  0.25987617     0.09100
H1361       H  0.52520034  0.32638353  0.29752990     0.09100
H1362       H  0.46884688  0.38413097  0.27088461     0.09100
H1363       H  0.47935635  0.39208804  0.31050363     0.09100
H1364       H  0.45351792  0.36578682  0.30271646     0.05800
C1365       C  0.55951253  0.44785521  0.14573848    -0.20000
C1366       C  0.57368208  0.46264510  0.16934211    -0.06500
C1367       C  0.59371291  0.48313482  0.16089181     0.14300
C1368       C  0.59812885  0.48889740  0.12934035    -0.20000
C1369       C  0.58321542  0.47477027  0.10590686    -0.06500
C1370       C  0.56405013  0.45358450  0.11414456     0.14300
C1371       C  0.54763658  0.43750108  0.09005205    -0.23400
H1372       H  0.54428322  0.43204671  0.15210235     0.15600
H1373       H  0.61304373  0.50497598  0.12294717     0.15600
C1374       C  0.60992882  0.49967479  0.18480136    -0.23300
H1375       H  0.53322699  0.42206064  0.10079452     0.05900
H1376       H  0.55648700  0.43186507  0.07407920     0.09100
H1377       H  0.54052644  0.44610355  0.07659187     0.09100
H1378       H  0.61701852  0.49135145  0.19890978     0.09100
H1379       H  0.60097415  0.50557346  0.20013731     0.09100
H1380       H  0.62442925  0.51493684  0.17385778     0.05800
C1381       C  0.59964179  0.49239548  0.39686342    -0.20000
C1382       C  0.58722841  0.47600090  0.41986133    -0.06500
C1383       C  0.57058662  0.45364219  0.41036527     0.14300
C1384       C  0.56552107  0.44898052  0.37858029    -0.20000
C1385       C  0.57683043  0.46584793  0.35593233    -0.06500
C1386       C  0.59468080  0.48761114  0.36507454     0.14300
C1387       C  0.60752455  0.50628445  0.34169200    -0.23400
H1388       H  0.61269864  0.50942754  0.40384144     0.15600
H1389       H  0.55201266  0.43220521  0.37138377     0.15600
C1390       C  0.55727214  0.43480628  0.43336575    -0.23300
H1391       H  0.62045075  0.52244946  0.35300389     0.05900
H1392       H  0.59556917  0.50957387  0.32885941     0.09100
H1393       H  0.61648076  0.50121933  0.32502176     0.09100
H1394       H  0.54738888  0.43937941  0.44903748     0.09100
H1395       H  0.56904668  0.43181770  0.44718722     0.09100
H1396       H  0.54504647  0.41853196  0.42162476     0.05800
C1397       C  0.56414441  0.67625935  0.21903354    -0.20000
C1398       C  0.54038094  0.66454075  0.22256679    -0.06500
C1399       C  0.52906009  0.67661700  0.21787915     0.14300
C1400       C  0.54162388  0.69951533  0.20917041    -0.20000
C1401       C  0.56527841  0.71117941  0.20507865    -0.06500
C1402       C  0.57677533  0.69940001  0.21065607     0.14300
C1403       C  0.60223131  0.71088440  0.20806975    -0.23400
H1404       H  0.57296741  0.66723090  0.22280252     0.15600
H1405       H  0.53265138  0.70840535  0.20547567     0.15600
C1406       C  0.50367759  0.66573195  0.22136384    -0.23300
H1407       H  0.60818774  0.69905098  0.21341550     0.05900
H1408       H  0.61051019  0.72527422  0.22484884     0.09100
H1409       H  0.60774834  0.71717099  0.18402437     0.09100
H1410       H  0.49850297  0.65968209  0.24557356     0.09100
H1411       H  0.49475726  0.65136063  0.20468247     0.09100
H1412       H  0.49799838  0.67785949  0.21651799     0.05800
C1413       C  0.45066423  0.55665820  0.13823149    -0.20000
C1414       C  0.47054375  0.57752444  0.14447243    -0.06500
C1415       C  0.48206999  0.59264762  0.11964040     0.14300
C1416       C  0.47466556  0.58562751  0.08898090    -0.20000
C1417       C  0.45616152  0.56375729  0.08232343    -0.06500
C1418       C  0.44336302  0.54946212  0.10749916     0.14300
C1419       C  0.42214335  0.52654325  0.10243519    -0.23400
H1420       H  0.44156240  0.54532505  0.15738966     0.15600
H1421       H  0.48420400  0.59692968  0.07000639     0.15600
C1422       C  0.50214862  0.61628030  0.12530465    -0.23300
H1423       H  0.41345024  0.51871368  0.12472785     0.05900
H1424       H  0.42640265  0.51465229  0.09123065     0.09100
H1425       H  0.41003725  0.52842856  0.08768327     0.09100
H1426       H  0.51660633  0.61546076  0.13492858     0.09100
H1427       H  0.49729848  0.62552318  0.14183803     0.09100
H1428       H  0.50810442  0.62628437  0.10348462     0.05800
C1429       C  0.48830848  0.59210527  0.35568586    -0.20000
C1430       C  0.47471156  0.57749495  0.33154148    -0.06500
C1431       C  0.45490853  0.55656833  0.33931156     0.14300
C1432       C  0.44998537  0.55040333  0.37070793    -0.20000
C1433       C  0.46399754  0.56466741  0.39472436    -0.06500
C1434       C  0.48309531  0.58608742  0.38714624     0.14300
C1435       C  0.49862445  0.60220724  0.41192352    -0.23400
H1436       H  0.50344119  0.60817987  0.34987530     0.15600
H1437       H  0.43519924  0.53407071  0.37656939     0.15600
C1438       C  0.43937072  0.54009893  0.31481566    -0.23300
H1439       H  0.51317450  0.61783008  0.40175821     0.05900
H1440       H  0.50555569  0.59376367  0.42612109     0.09100
H1441       H  0.48910811  0.60752183  0.42711265     0.09100
H1442       H  0.44898421  0.53499781  0.29944721     0.09100
H1443       H  0.43193151  0.54814070  0.30082937     0.09100
H1444       H  0.42507945  0.52438464  0.32520935     0.05800
C1445       C  0.50419444  0.51731435  0.23484206    -0.20000
C1446       C  0.52035496  0.53964080  0.24426517    -0.06500
C1447       C  0.54058856  0.54368533  0.25866455     0.14300
C1448       C  0.54393631  0.52542369  0.26324929    -0.20000
C1449       C  0.52775175  0.50307499  0.25393067    -0.06500
C1450       C  0.50756283  0.49905020  0.23937332     0.14300
C1451       C  0.48954457  0.47575886  0.22803526    -0.23400
H1452       H  0.48867280  0.51404709  0.22375058     0.15600
H1453       H  0.55945864  0.52871929  0.27436672     0.15600
C1454       C  0.55864693  0.56699649  0.26989566    -0.23300
H1455       H  0.47522318  0.47599375  0.21666119     0.05900
H1456       H  0.48242880  0.46384887  0.24793666     0.09100
H1457       H  0.49692589  0.46937739  0.21067102     0.09100
H1458       H  0.55132026  0.57342675  0.28727325     0.09100
H1459       H  0.56572182  0.57886217  0.24994175     0.09100
H1460       H  0.57299340  0.56677762  0.28121274     0.05800
C1461       C  0.36482540  0.86993111  0.21410354    -0.20000
C1462       C  0.37816632  0.89346870  0.20892959    -0.06500
C1463       C  0.36775200  0.90476357  0.19609860     0.14300
C1464       C  0.34450250  0.89215089  0.18860814    -0.20000
C1465       C  0.33129911  0.86853779  0.19333830    -0.06500
C1466       C  0.34166072  0.85733509  0.20667067     0.14300
C1467       C  0.32855996  0.83222724  0.21394751    -0.23400
H1468       H  0.37260467  0.86119315  0.22415958     0.15600
H1469       H  0.33662606  0.90081809  0.17863452     0.15600
C1470       C  0.38094239  0.92991785  0.18945742    -0.23300
H1471       H  0.33926376  0.82682210  0.22583337     0.05900
H1472       H  0.32226000  0.82214620  0.19213388     0.09100
H1473       H  0.31409121  0.82815935  0.22960207     0.09100
H1474       H  0.39509681  0.93400889  0.17315373     0.09100
H1475       H  0.38775382  0.93964075  0.21145635     0.09100
H1476       H  0.37014302  0.93562090  0.17860178     0.05800
C1477       C  0.67588281  0.16772902  0.29719903    -0.20000
C1478       C  0.66446683  0.14450620  0.28949820    -0.06500
C1479       C  0.67661421  0.13304264  0.29070631     0.14300
C1480       C  0.69991009  0.14538516  0.29826013    -0.20000
C1481       C  0.71144036  0.16881331  0.30522106    -0.06500
C1482       C  0.69893214  0.17997496  0.30525540     0.14300
C1483       C  0.70940560  0.20482336  0.31353149    -0.23400
H1484       H  0.66660870  0.17651844  0.29710096     0.15600
H1485       H  0.70921280  0.13662940  0.29848274     0.15600
C1486       C  0.66542813  0.10798364  0.28366932    -0.23300
H1487       H  0.69680517  0.21027779  0.31288230     0.05900
H1488       H  0.72300232  0.21554859  0.29664346     0.09100
H1489       H  0.71636077  0.20800494  0.33750928     0.09100
H1490       H  0.65815950  0.10435792  0.25986112     0.09100
H1491       H  0.65181030  0.09804518  0.30092434     0.09100
H1492       H  0.67767575  0.10209855  0.28486298     0.05800
C1493       C  0.51666856  0.03673132  0.25796190    -0.20000
C1494       C  0.53919667  0.04174987  0.26034991    -0.06500
C1495       C  0.54339982  0.02376220  0.25658947     0.14300
C1496       C  0.52524721  0.00176303  0.24950978    -0.20000
C1497       C  0.50279334  0.99685918  0.24639343    -0.06500
C1498       C  0.49847148  0.01466490  0.25134933     0.14300
C1499       C  0.47487688  0.01084432  0.24969683    -0.23400
H1500       H  0.51317072  0.05026819  0.26107737     0.15600
H1501       H  0.52873260  0.98821514  0.24641337     0.15600
C1502       C  0.56680119  0.02730662  0.26008148    -0.23300
H1503       H  0.47483509  0.02676187  0.25404169     0.05900
H1504       H  0.46390181  0.99838536  0.26765541     0.09100
H1505       H  0.46759226  0.00451592  0.22622030     0.09100
H1506       H  0.57354985  0.03417216  0.28361747     0.09100
H1507       H  0.57833905  0.03921230  0.24202888     0.09100
H1508       H  0.56665367  0.01115976  0.25731650     0.05800
C1509       C  0.46275029  0.14207896  0.03073737    -0.20000
C1510       C  0.47158208  0.15926551  0.05357516    -0.06500
C1511       C  0.49096489  0.16371306  0.07064024     0.14300
C1512       C  0.50173701  0.15176033  0.06329951    -0.20000
C1513       C  0.49376301  0.13548976  0.03933384    -0.06500
C1514       C  0.47372679  0.13018768  0.02322077     0.14300
C1515       C  0.46460161  0.11303938  0.99707278    -0.23400
H1516       H  0.44788095  0.13873526  0.01771604     0.15600
H1517       H  0.51683308  0.15547079  0.07605022     0.15600
C1518       C  0.50032655  0.18087165  0.09687541    -0.23300
H1519       H  0.44937027  0.11174508  0.98621555     0.05900
H1520       H  0.45963641  0.09597026  0.00603776     0.09100
H1521       H  0.46007163  0.09519119  0.52734508     0.09100
H1522       H  0.48670403  0.17691162  0.11408517     0.09100
H1523       H  0.50728560  0.19832137  0.08778479     0.09100
H1524       H  0.51435283  0.18069149  0.10923138     0.05800
C1525       C  0.55129769  0.12102390  0.13715875    -0.20000
C1526       C  0.56623362  0.12326807  0.11318108    -0.06500
C1527       C  0.58845543  0.12876338  0.12101670     0.14300
C1528       C  0.59454988  0.13035569  0.15258472    -0.20000
C1529       C  0.57928618  0.12727044  0.17663965    -0.06500
C1530       C  0.55756702  0.12327355  0.16863307     0.14300
C1531       C  0.54044474  0.12039248  0.19295705    -0.23400
H1532       H  0.53439587  0.11722142  0.13119939     0.15600
H1533       H  0.61124117  0.13357219  0.15854017     0.15600
C1534       C  0.60550975  0.13202782  0.09640151    -0.23300
H1535       H  0.52427951  0.11700019  0.18239819     0.05900
H1536       H  0.54733816  0.13620469  0.20704663     0.09100
H1537       H  0.53642814  0.10581900  0.20825090     0.09100
H1538       H  0.60932151  0.14675011  0.08156619     0.09100
H1539       H  0.59865356  0.11644107  0.08182176     0.09100
H1540       H  0.62176975  0.13550585  0.10672581     0.05800
C1541       C  0.55736003  0.13642326  0.40384313    -0.20000
C1542       C  0.56997851  0.13379258  0.42733197    -0.06500
C1543       C  0.58949051  0.13310012  0.41888492     0.14300
C1544       C  0.59448937  0.13281762  0.38726569    -0.20000
C1545       C  0.58066206  0.13332531  0.36377202    -0.06500
C1546       C  0.56257756  0.13640066  0.37214519     0.14300
C1547       C  0.54786638  0.13817008  0.34791028    -0.23400
H1548       H  0.54263475  0.13735458  0.41027490     0.15600
H1549       H  0.60868871  0.13099379  0.38078407     0.15600
C1550       C  0.60421883  0.13095616  0.44277788    -0.23300
H1551       H  0.53420236  0.14002605  0.35859962     0.05900
H1552       H  0.53973671  0.12261735  0.33314505     0.09100
H1553       H  0.55838768  0.15331051  0.33315970     0.09100
H1554       H  0.59396955  0.11510819  0.45636616     0.09100
H1555       H  0.61168321  0.14592167  0.45862889     0.09100
H1556       H  0.61847074  0.13022830  0.43185246     0.05800
C1557       C  0.53712231  0.88092387  0.43721096    -0.20000
C1558       C  0.54828279  0.90133740  0.45424081    -0.06500
C1559       C  0.57118849  0.91039113  0.46300827     0.14300
C1560       C  0.58160372  0.89778101  0.45667792    -0.20000
C1561       C  0.56985394  0.87659848  0.44131943    -0.06500
C1562       C  0.54759530  0.86861596  0.43021419     0.14300
C1563       C  0.53471365  0.84742160  0.41045469    -0.23400
H1564       H  0.51987630  0.87441848  0.42933824     0.15600
H1565       H  0.59882651  0.90423643  0.46457132     0.15600
C1566       C  0.58230543  0.93169090  0.98010194    -0.23300
H1567       H  0.51853383  0.84515300  0.40160053     0.05900
H1568       H  0.53026400  0.83209642  0.42428959     0.09100
H1569       H  0.54513865  0.84856524  0.38997800     0.09100
H1570       H  0.57359856  0.93113308  0.00215878     0.09100
H1571       H  0.58373988  0.94543656  0.96505901     0.09100
H1572       H  0.59980462  0.93599087  0.98587600     0.05800
C1573       C  0.48308789  0.90996475  0.12529857    -0.20000
C1574       C  0.46458597  0.91253746  0.13170182    -0.06500
C1575       C  0.45096323  0.91206024  0.10679494     0.14300
C1576       C  0.45720651  0.91071778  0.07605225    -0.20000
C1577       C  0.47696501  0.91028483  0.06943512    -0.06500
C1578       C  0.48963443  0.90909224  0.09453282     0.14300
C1579       C  0.51012895  0.90699058  0.08930410    -0.23400
H1580       H  0.49318625  0.90981872  0.14444999     0.15600
H1581       H  0.44722982  0.91126315  0.05703981     0.15600
C1582       C  0.42972601  0.91281246  0.11242029    -0.23300
H1583       H  0.51659470  0.90425323  0.11144626     0.05900
H1584       H  0.52417131  0.92280952  0.07887111     0.09100
H1585       H  0.50557865  0.89225426  0.07379294     0.09100
H1586       H  0.43409758  0.92944701  0.12266162     0.09100
H1587       H  0.41820019  0.89888469  0.12839898     0.09100
H1588       H  0.42033792  0.91064746  0.09048672     0.05800
C1589       C  0.48349888  0.91225126  0.32368669    -0.20000
C1590       C  0.46115759  0.90678347  0.31813549    -0.06500
C1591       C  0.44624617  0.90154168  0.34376852     0.14300
C1592       C  0.45468715  0.90396103  0.37419922    -0.20000
C1593       C  0.47767874  0.91180549  0.37969127    -0.06500
C1594       C  0.49201438  0.91496203  0.35401617     0.14300
C1595       C  0.51631667  0.92115034  0.35818414    -0.23400
H1596       H  0.49486543  0.91583878  0.30415691     0.15600
H1597       H  0.44350624  0.90081003  0.39381292     0.15600
C1598       C  0.42145943  0.89337232  0.33937200    -0.23300
H1599       H  0.52427054  0.92104748  0.33569909     0.05900
H1600       H  0.51694273  0.90865923  0.37373732     0.09100
H1601       H  0.52666086  0.93852308  0.36813019     0.09100
H1602       H  0.41355176  0.87833842  0.32362295     0.09100
H1603       H  0.41946477  0.90708638  0.32951083     0.09100
H1604       H  0.41204796  0.88825153  0.36177479     0.05800
C1605       C  0.50676887  0.02583442  0.48873172    -0.20000
C1606       C  0.52443643  0.04053724  0.00241469    -0.06500
C1607       C  0.53965512  0.03385322  0.01262767     0.14300
C1608       C  0.53544567  0.01213606  0.00484450    -0.20000
C1609       C  0.51854479  0.99796298  0.48779297    -0.06500
C1610       C  0.50233560  0.00409041  0.48057883     0.14300
C1611       C  0.48051321  0.98819274  0.46366491    -0.23400
H1612       H  0.49442280  0.03048035  0.48286700     0.15600
H1613       H  0.54704559  0.00708784  0.01299633     0.15600
C1614       C  0.56002416  0.04910132  0.03260627    -0.23300
H1615       H  0.47069627  0.99644777  0.45835855     0.05900
H1616       H  0.46949322  0.97312318  0.47825645     0.09100
H1617       H  0.48432046  0.98274542  0.44124929     0.09100
H1618       H  0.55455254  0.05430961  0.05379797     0.09100
H1619       H  0.57243838  0.06436523  0.01931819     0.09100
H1620       H  0.56896663  0.04039603  0.04024703     0.05800
O1621       O  0.47541297  0.90932316  0.51305297    -0.57500
C1622       C  0.48478067  0.91631547  0.91331164     0.75200
O1623       O  0.52832832  0.96925336  0.98475831    -0.58600
C1624       C  0.48910390  0.91531062  0.53581582     0.75100
C1625       C  0.53252557  0.91022974  0.96310543     0.77500
Cd1626     Cd  0.50335669  0.92785912  0.97479707     1.37500
O1627       O  0.47278820  0.90459619  0.93628479    -0.57500
O1628       O  0.51114619  0.89778738  0.96567324    -0.56300
C1629       C  0.51261902  0.97357571  0.98145111     0.77500
O1630       O  0.54101153  0.93141276  0.96760587    -0.58700
O1631       O  0.50406993  0.93342759  0.91961959    -0.57100
O1632       O  0.50999436  0.92618978  0.52901853    -0.57100
O1633       O  0.49338081  0.95693323  0.97385525    -0.56300
O1634       O  0.57117121  0.12978612  0.55772421    -0.57500
C1635       C  0.55692987  0.12737925  0.95904195     0.75200
O1636       O  0.51470882  0.06885415  0.50999570    -0.58600
C1637       C  0.55839413  0.12056072  0.58115033     0.75100
C1638       C  0.51157455  0.12923021  0.52749327     0.77500
Cd1639     Cd  0.53992301  0.11043531  0.51918719     1.37500
O1640       O  0.56926310  0.13247611  0.98310612    -0.57500
O1641       O  0.53303904  0.14092930  0.52567298    -0.56300
C1642       C  0.53076500  0.06485907  0.51023871     0.77500
O1643       O  0.50246866  0.10782862  0.52451256    -0.58700
O1644       O  0.53570720  0.11572907  0.96351964    -0.57100
O1645       O  0.53754902  0.10691630  0.57551558    -0.57100
O1646       O  0.55035970  0.08177298  0.51541703    -0.56300
O1647       O  0.57931107  0.07348335  0.76360998    -0.57500
C1648       C  0.63875271  0.13366067  0.78275846     0.75200
O1649       O  0.57490756  0.12858058  0.73362840    -0.58600
C1650       C  0.55826258  0.06547495  0.76738166     0.75100
C1651       C  0.58169723  0.12668260  0.83182526     0.77500
Cd1652     Cd  0.59085620  0.11369827  0.77208135     1.37500
O1653       O  0.62563425  0.11228750  0.78041795    -0.57500
O1654       O  0.58900419  0.11332785  0.82830323    -0.56300
C1655       C  0.58426202  0.12559864  0.71014162     0.77500
O1656       O  0.57818155  0.13440826  0.80713039    -0.58700
O1657       O  0.62974759  0.14547374  0.77832235    -0.57100
O1658       O  0.55273428  0.07978269  0.77477608    -0.57100
O1659       O  0.59815645  0.11930459  0.71589007    -0.56300
O1660       O  0.41924875  0.92715940  0.71897568    -0.57500
C1661       C  0.48738845  0.97214443  0.73947947     0.75200
O1662       O  0.46650779  0.90640690  0.76261409    -0.58600
C1663       C  0.40644642  0.90618982  0.71255784     0.75100
C1664       C  0.46467771  0.91719491  0.66388091     0.77500
Cd1665     Cd  0.45383448  0.92522779  0.72577000     1.37500
O1666       O  0.46642857  0.96527773  0.73785460    -0.57500
O1667       O  0.45863731  0.93129048  0.66999273    -0.56300
C1668       C  0.45642676  0.90854043  0.78598435     0.77500
O1669       O  0.46703467  0.90716007  0.68695470    -0.58700
O1670       O  0.49262849  0.95745084  0.73318038    -0.57100
O1671       O  0.41548559  0.89418621  0.71387153    -0.57100
O1672       O  0.44335341  0.91588184  0.78056476    -0.56300
O1673       O  0.46867544  0.57669215  0.69956702    -0.57500
C1674       C  0.48349704  0.58498583  0.79725409     0.75200
O1675       O  0.52881442  0.57638599  0.74309338    -0.58600
C1676       C  0.48052732  0.58027423  0.67518085     0.75100
C1677       C  0.52898330  0.63755203  0.72556285     0.77500
Cd1678     Cd  0.50165584  0.58928566  0.73541639     1.37500
O1679       O  0.47053621  0.57682337  0.77377540    -0.57500
O1680       O  0.50822239  0.62714501  0.73303275    -0.56300
C1681       C  0.51404750  0.55527679  0.74231470     0.77500
O1682       O  0.53801296  0.62548832  0.72408010    -0.58700
O1683       O  0.50459759  0.59648778  0.79162861    -0.57100
O1684       O  0.50123997  0.58699271  0.67920228    -0.57100
O1685       O  0.49388095  0.55022303  0.73710839    -0.56300
O1686       O  0.57840605  0.46237844  0.72763907    -0.57500
C1687       C  0.57046876  0.46049737  0.82499463     0.75200
O1688       O  0.51908760  0.46183581  0.75820947    -0.58600
C1689       C  0.56521345  0.45456742  0.70437774     0.75100
C1690       C  0.52065729  0.40161706  0.77631351     0.77500
Cd1691     Cd  0.54728741  0.44992100  0.76638883     1.37500
O1692       O  0.58158928  0.46821835  0.79990008    -0.57500
O1693       O  0.54145281  0.41198365  0.76866277    -0.56300
C1694       C  0.53305104  0.48287390  0.76263412     0.77500
O1695       O  0.51167763  0.41370170  0.77794303    -0.58700
O1696       O  0.54917183  0.44766962  0.82251865    -0.57100
O1697       O  0.54418192  0.44352665  0.71038456    -0.57100
O1698       O  0.55287170  0.48807293  0.77031810    -0.56300
O1699       O  0.57933646  0.46747162  0.55151552    -0.57500
C1700       C  0.59509460  0.48667171  0.95208281     0.75200
O1701       O  0.57802305  0.52610249  0.51105458    -0.58600
C1702       C  0.58508541  0.47978122  0.57588786     0.75100
C1703       C  0.64118894  0.52691718  0.52319543     0.77500
Cd1704     Cd  0.59303470  0.50030155  0.51548453     1.37500
O1705       O  0.58838572  0.47356789  0.97544977    -0.57500
O1706       O  0.62988347  0.50560643  0.51926590    -0.56300
C1707       C  0.55731416  0.51012812  0.51186156     0.77500
O1708       O  0.62993742  0.53685873  0.52281624    -0.58700
O1709       O  0.60337121  0.50760364  0.95788156    -0.57100
O1710       O  0.59393765  0.50094887  0.57183490    -0.57100
O1711       O  0.55362866  0.49022400  0.51490528    -0.56300
O1712       O  0.45778920  0.56686171  0.52598542    -0.57500
C1713       C  0.46076033  0.56046031  0.92589158     0.75200
O1714       O  0.46569290  0.51426446  0.98998951    -0.58600
C1715       C  0.45082415  0.55369810  0.54933537     0.75100
C1716       C  0.40204720  0.51410347  0.97398274     0.77500
Cd1717     Cd  0.45012203  0.53992613  0.98640792     1.37500
O1718       O  0.46457669  0.57281429  0.94992236    -0.57500
O1719       O  0.41326818  0.53538081  0.97859958    -0.56300
C1720       C  0.48625285  0.53047479  0.99256037     0.77500
O1721       O  0.41295416  0.50392855  0.97710569    -0.58700
O1722       O  0.45280398  0.53949738  0.93054164    -0.57100
O1723       O  0.44133854  0.53264912  0.54352824    -0.57100
O1724       O  0.48943771  0.55027403  0.99156268    -0.56300
O1725       O  0.92805696  0.41643859  0.52919849    -0.57500
C1726       C  0.97525431  0.48462991  0.51435684     0.75200
O1727       O  0.90764878  0.46157216  0.98107752    -0.58600
C1728       C  0.90673226  0.40343562  0.53187828     0.75100
C1729       C  0.91645500  0.46141634  0.58086000     0.77500
Cd1730     Cd  0.92735888  0.45137417  0.52045421     1.37500
O1731       O  0.96768250  0.46354434  0.51130997    -0.57500
O1732       O  0.92854666  0.45274266  0.57652171    -0.56300
C1733       C  0.91419808  0.45494621  0.95783251     0.77500
O1734       O  0.90920120  0.46608164  0.55661737    -0.58700
O1735       O  0.96076544  0.48986908  0.52187582    -0.57100
O1736       O  0.89500332  0.41255842  0.52772471    -0.57100
O1737       O  0.92498868  0.44521117  0.96402788    -0.56300
O1738       O  0.07356142  0.57894550  0.99084897    -0.57500
C1739       C  0.13207598  0.64002506  0.96826681     0.75200
O1740       O  0.13444311  0.58144697  0.51746694    -0.58600
C1741       C  0.06715347  0.55803552  0.99048618     0.75100
C1742       C  0.12451828  0.58302324  0.91949866     0.77500
Cd1743     Cd  0.11395770  0.59282052  0.98036739     1.37500
O1744       O  0.11097006  0.62686483  0.97308135    -0.57500
O1745       O  0.11180860  0.59099450  0.92390132    -0.56300
C1746       C  0.13016756  0.59010600  0.54072178     0.77500
O1747       O  0.13223570  0.57884746  0.94364429    -0.58700
O1748       O  0.14443333  0.63149028  0.97109980    -0.57100
O1749       O  0.08229715  0.55348400  0.98404834    -0.57100
O1750       O  0.12053715  0.60107117  0.53492510    -0.56300
O1751       O  0.13624533  0.57604883  0.69125219    -0.57500
C1752       C  0.12988526  0.56262874  0.79089681     0.75200
O1753       O  0.07379668  0.51857612  0.73708545    -0.58600
C1754       C  0.12643851  0.56328988  0.66785797     0.75100
C1755       C  0.13427209  0.51686201  0.71935958     0.77500
Cd1756     Cd  0.11521899  0.54462506  0.72937475     1.37500
O1757       O  0.13500902  0.57582971  0.76777710    -0.57500
O1758       O  0.14610899  0.53825470  0.72302043    -0.56300
C1759       C  0.06938876  0.53437034  0.73786222     0.77500
O1760       O  0.11291595  0.50774190  0.72220474    -0.58700
O1761       O  0.12006745  0.54159126  0.78470367    -0.57100
O1762       O  0.11134121  0.54288036  0.67353534    -0.57100
O1763       O  0.08604849  0.55423947  0.73331486    -0.56300
O1764       O  0.90989128  0.47233122  0.73292273    -0.57500
C1765       C  0.91964953  0.48516914  0.83152095     0.75200
O1766       O  0.97314983  0.53021484  0.76255896    -0.58600
C1767       C  0.91584775  0.48494898  0.70906065     0.75100
C1768       C  0.91284147  0.53288187  0.77479879     0.77500
Cd1769     Cd  0.93162712  0.50437240  0.76991744     1.37500
O1770       O  0.91167464  0.47255840  0.80756928    -0.57500
O1771       O  0.90106068  0.51139293  0.77261254    -0.56300
C1772       C  0.97754497  0.51441786  0.76237577     0.77500
O1773       O  0.93426191  0.54182222  0.77425355    -0.58700
O1774       O  0.93302516  0.50618282  0.82668193    -0.57100
O1775       O  0.92761102  0.50616047  0.71397230    -0.57100
O1776       O  0.96081614  0.49460035  0.76689221    -0.56300
O1777       O  0.24953496  0.80219161  0.71501424    -0.57500
C1778       C  0.25484068  0.81425411  0.61493895     0.75200
O1779       O  0.24922300  0.86123664  0.67198278    -0.58600
C1780       C  0.25366654  0.81522444  0.73834150     0.75100
C1781       C  0.31072487  0.85986888  0.68129660     0.77500
Cd1782     Cd  0.26207423  0.83355499  0.67639733     1.37500
O1783       O  0.24709654  0.80149232  0.63864454    -0.57500
O1784       O  0.29961798  0.83849393  0.67751462    -0.56300
C1785       C  0.22823441  0.84609410  0.67108947     0.77500
O1786       O  0.29921453  0.86951134  0.68178939    -0.58700
O1787       O  0.26717940  0.83540131  0.62020963    -0.57100
O1788       O  0.26110948  0.83589846  0.73244740    -0.57100
O1789       O  0.22346268  0.82575217  0.67343844    -0.56300
O1790       O  0.12832620  0.90450217  0.68625455    -0.57500
C1791       C  0.12979574  0.89502564  0.58777936     0.75200
O1792       O  0.13356710  0.84760316  0.65151430    -0.58600
C1793       C  0.12152880  0.89120304  0.70941515     0.75100
C1794       C  0.07176445  0.84646476  0.63732435     0.77500
Cd1795     Cd  0.11957319  0.87412609  0.64783979     1.37500
O1796       O  0.13421679  0.90724114  0.61205013    -0.57500
O1797       O  0.08225754  0.86786117  0.64027499    -0.56300
C1798       C  0.15437291  0.86299034  0.65392096     0.77500
O1799       O  0.08340569  0.83715739  0.64104350    -0.58700
O1800       O  0.12125693  0.87393272  0.59202570    -0.57100
O1801       O  0.11272792  0.87025286  0.70332606    -0.57100
O1802       O  0.15874437  0.88326324  0.65288389    -0.56300
O1803       O  0.23825826  0.79464111  0.88838985    -0.57500
C1804       C  0.22629611  0.79132414  0.98590971     0.75200
O1805       O  0.18066670  0.79739179  0.91715741    -0.58600
C1806       C  0.22559361  0.78765551  0.86450116     0.75100
C1807       C  0.17820829  0.73452291  0.93208190     0.77500
Cd1808     Cd  0.20642448  0.78281528  0.92524379     1.37500
O1809       O  0.23852247  0.79516214  0.96187627    -0.57500
O1810       O  0.19902858  0.74449550  0.92494105    -0.56300
C1811       C  0.19627886  0.81818951  0.91950648     0.77500
O1812       O  0.16975683  0.74704237  0.93488922    -0.58700
O1813       O  0.20543306  0.78377745  0.98138463    -0.57100
O1814       O  0.20442721  0.77777374  0.86922867    -0.57100
O1815       O  0.21593693  0.82204897  0.92522236    -0.56300
O1816       O  0.13358881  0.91004160  0.86183118    -0.57500
C1817       C  0.15103862  0.92327640  0.95911850     0.75200
O1818       O  0.19308658  0.91110484  0.90187959    -0.58600
C1819       C  0.14551042  0.91506477  0.83722598     0.75100
C1820       C  0.19512258  0.97306490  0.88329948     0.77500
Cd1821     Cd  0.16717004  0.92569180  0.89655667     1.37500
O1822       O  0.13750183  0.91669983  0.93618502    -0.57500
O1823       O  0.17376817  0.96314206  0.88645158    -0.56300
C1824       C  0.17749716  0.89028752  0.89987137     0.77500
O1825       O  0.20399355  0.96113190  0.88800071    -0.58700
O1826       O  0.17192342  0.93250364  0.95268577    -0.57100
O1827       O  0.16677863  0.92471984  0.84056940    -0.57100
O1828       O  0.15763560  0.88631174  0.89556484    -0.56300
O1829       O  0.90789087  0.80104603  0.89583978    -0.57500
C1830       C  0.89424887  0.79316116  0.79463591     0.75200
O1831       O  0.84918152  0.73683637  0.84989619    -0.58600
C1832       C  0.89822572  0.78610468  0.91688580     0.75100
C1833       C  0.84827322  0.79622072  0.87148600     0.77500
Cd1834     Cd  0.87679478  0.77823727  0.85680817     1.37500
O1835       O  0.90780881  0.79844606  0.81742010    -0.57500
O1836       O  0.86956083  0.80842118  0.86804798    -0.56300
C1837       C  0.86430811  0.73155432  0.84815565     0.77500
O1838       O  0.83944980  0.77505802  0.86655163    -0.58700
O1839       O  0.87338531  0.78258331  0.80145943    -0.57100
O1840       O  0.87966240  0.76845020  0.90943035    -0.57100
O1841       O  0.88466830  0.74787067  0.85019565    -0.56300
O1842       O  0.80264329  0.57112793  0.85396576    -0.57500
C1843       C  0.81069359  0.58007212  0.75464417     0.75200
O1844       O  0.85771205  0.63435121  0.82302630    -0.58600
C1845       C  0.81660070  0.57710959  0.87638218     0.75100
C1846       C  0.86141890  0.57599234  0.80089729     0.77500
Cd1847     Cd  0.83228673  0.59303258  0.81440383     1.37500
O1848       O  0.79895208  0.57135756  0.77907625    -0.57500
O1849       O  0.84076132  0.56347380  0.80850015    -0.56300
C1850       C  0.84200491  0.63882141  0.82379236     0.77500
O1851       O  0.86954962  0.59733065  0.80163440    -0.58700
O1852       O  0.83154041  0.59462920  0.75837465    -0.57100
O1853       O  0.83740973  0.58894755  0.86933195    -0.57100
O1854       O  0.82212827  0.62217591  0.81911369    -0.56300
O1855       O  0.96141733  0.77471691  0.61766596    -0.57500
C1856       C  0.89120285  0.72955247  0.60292951     0.75200
O1857       O  0.91349884  0.79585930  0.64321257    -0.58600
C1858       C  0.97486809  0.79595407  0.61420429     0.75100
C1859       C  0.92325504  0.78506276  0.54401898     0.77500
Cd1860     Cd  0.92714734  0.77625869  0.60801536     1.37500
O1861       O  0.91182814  0.73493326  0.60396896    -0.57500
O1862       O  0.93064768  0.77266903  0.55304317    -0.56300
C1863       C  0.91948503  0.79023622  0.66785942     0.77500
O1864       O  0.91955108  0.79590265  0.56497567    -0.58700
O1865       O  0.88764869  0.74567985  0.60678294    -0.57100
O1866       O  0.96588791  0.80740630  0.60707770    -0.57100
O1867       O  0.92843729  0.77832730  0.66430533    -0.56300
O1868       O  0.75106776  0.59408009  0.55444424    -0.57500
C1869       C  0.82009036  0.63675183  0.57349157     0.75200
O1870       O  0.79518069  0.57086171  0.60297493    -0.58600
C1871       C  0.73722753  0.57277762  0.55274528     0.75100
C1872       C  0.79348106  0.57914090  0.00382594     0.77500
Cd1873     Cd  0.78436283  0.59029242  0.56416794     1.37500
O1874       O  0.79935484  0.63082751  0.57544626    -0.57500
O1875       O  0.78800518  0.59385224  0.00823565    -0.56300
C1876       C  0.78671006  0.57557059  0.62598419     0.77500
O1877       O  0.79486555  0.56876072  0.52756701    -0.58700
O1878       O  0.82392791  0.62139518  0.56521964    -0.57100
O1879       O  0.74531284  0.56023167  0.55786531    -0.57100
O1880       O  0.77572483  0.58509649  0.61953714    -0.56300
O1881       O  0.80363620  0.90329511  0.85852422    -0.57500
C1882       C  0.79653861  0.89197288  0.95887001     0.75200
O1883       O  0.74067389  0.84782071  0.90330020    -0.58600
C1884       C  0.79334474  0.89052900  0.83534190     0.75100
C1885       C  0.79917026  0.84212490  0.89510030     0.77500
Cd1886     Cd  0.78219106  0.87253439  0.89781013     1.37500
O1887       O  0.80382410  0.90452348  0.93490158    -0.57500
O1888       O  0.81163522  0.86332515  0.90008420    -0.56300
C1889       C  0.73701502  0.86406250  0.90586511     0.77500
O1890       O  0.77807985  0.83446816  0.89208226    -0.58700
O1891       O  0.78414781  0.87077138  0.95407063    -0.57100
O1892       O  0.77840290  0.87016904  0.84149674    -0.57100
O1893       O  0.75421262  0.88388335  0.90349841    -0.56300
O1894       O  0.57930970  0.80308490  0.89676546    -0.57500
C1895       C  0.58697616  0.81435948  0.99625525     0.75200
O1896       O  0.64113442  0.86062130  0.93085245    -0.58600
C1897       C  0.58571662  0.81628454  0.87345002     0.75100
C1898       C  0.57949144  0.86208441  0.93896950     0.77500
Cd1899     Cd  0.59931135  0.83432621  0.93524184     1.37500
O1900       O  0.57822134  0.80206317  0.97220151    -0.57500
O1901       O  0.56801274  0.84070951  0.93538430    -0.56300
C1902       C  0.64532391  0.84473632  0.92825010     0.77500
O1903       O  0.60089785  0.87112156  0.94081989    -0.58700
O1904       O  0.60104624  0.83526424  0.99160208    -0.57100
O1905       O  0.59721784  0.83737743  0.87928752    -0.57100
O1906       O  0.62841989  0.82473866  0.93048627    -0.56300
O1907       O  0.59912199  0.74643857  0.69063649    -0.57500
C1908       C  0.64429234  0.81685422  0.67890574     0.75200
O1909       O  0.57945401  0.79507108  0.64792377    -0.58600
C1910       C  0.57772347  0.73344768  0.69251158     0.75100
C1911       C  0.58647835  0.78930320  0.74673147     0.77500
Cd1912     Cd  0.59749353  0.78145534  0.68488001     1.37500
O1913       O  0.63850401  0.79606056  0.67816956    -0.57500
O1914       O  0.60054616  0.78316677  0.74120275    -0.56300
C1915       C  0.58449171  0.78784046  0.62382250     0.77500
O1916       O  0.57724337  0.79230580  0.72322493    -0.58700
O1917       O  0.62847482  0.82065246  0.68376888    -0.57100
O1918       O  0.56612720  0.74273127  0.68856196    -0.57100
O1919       O  0.59352769  0.77612543  0.62845702    -0.56300
O1920       O  0.78189131  0.95873407  0.63713004    -0.57500
C1921       C  0.73781184  0.88855435  0.65530343     0.75200
O1922       O  0.80490115  0.91344703  0.61024296    -0.58600
C1923       C  0.80317210  0.97263871  0.63811729     0.75100
C1924       C  0.79768150  0.92003112  0.70875199     0.77500
Cd1925     Cd  0.78431303  0.92464030  0.64724598     1.37500
O1926       O  0.74339759  0.90929332  0.65583927    -0.57500
O1927       O  0.78791908  0.93094407  0.70332060    -0.56300
C1928       C  0.79531785  0.91554093  0.58641315     0.77500
O1929       O  0.80310738  0.91262941  0.68517740    -0.58700
O1930       O  0.75365767  0.88493175  0.64960245    -0.57100
O1931       O  0.81524033  0.96428182  0.64491854    -0.57100
O1932       O  0.78105837  0.92155588  0.59117297    -0.56300
O1933       O  0.46776272  0.23895308  0.52566552    -0.57500
C1934       C  0.46066059  0.22429526  0.62405679     0.75200
O1935       O  0.40466260  0.18098698  0.56644856    -0.58600
C1936       C  0.45979888  0.22333641  0.00221278     0.75100
C1937       C  0.46655907  0.17947196  0.55339004     0.77500
Cd1938     Cd  0.44644821  0.20664406  0.56204550     1.37500
O1939       O  0.46675526  0.23760255  0.60091877    -0.57500
O1940       O  0.47776557  0.20089729  0.55615476    -0.56300
C1941       C  0.40052374  0.19693699  0.56482994     0.77500
O1942       O  0.44513535  0.16983993  0.55642232    -0.58700
O1943       O  0.44882462  0.20323373  0.61810515    -0.57100
O1944       O  0.44525651  0.20568186  0.50593293    -0.57100
O1945       O  0.41747127  0.21675241  0.56105025    -0.56300
O1946       O  0.24526372  0.14015564  0.55753598    -0.57500
C1947       C  0.25519379  0.15492262  0.65681782     0.75200
O1948       O  0.30651674  0.19768835  0.58538138    -0.58600
C1949       C  0.25071658  0.15262149  0.53354853     0.75100
C1950       C  0.24537888  0.19976767  0.60353158     0.77500
Cd1951     Cd  0.26501863  0.17243262  0.59434652     1.37500
O1952       O  0.24510838  0.14186576  0.63376040    -0.57500
O1953       O  0.23380036  0.17842924  0.59945375    -0.56300
C1954       C  0.31056931  0.18168811  0.58737956     0.77500
O1955       O  0.26679985  0.20926092  0.60069775    -0.58700
O1956       O  0.26944833  0.17549523  0.65053954    -0.57100
O1957       O  0.26046539  0.17385318  0.53817144    -0.57100
O1958       O  0.29375870  0.16216980  0.59328084    -0.56300
O1959       O  0.26405926  0.08117623  0.85234131    -0.57500
C1960       C  0.31191021  0.15016410  0.83946442     0.75200
O1961       O  0.24924608  0.13311759  0.80653146    -0.58600
C1962       C  0.24265749  0.06839393  0.84993203     0.75100
C1963       C  0.25217716  0.12421306  0.90486071     0.77500
Cd1964     Cd  0.26434265  0.11678141  0.84382834     1.37500
O1965       O  0.30459404  0.12913961  0.83598212    -0.57500
O1966       O  0.26704854  0.11904412  0.89983353    -0.56300
C1967       C  0.25303644  0.12465088  0.78260736     0.77500
O1968       O  0.24259189  0.12630871  0.88103419    -0.58700
O1969       O  0.29723434  0.15529722  0.84627925    -0.57100
O1970       O  0.23190606  0.07815036  0.84331649    -0.57100
O1971       O  0.26068585  0.11176101  0.78754086    -0.56300
O1972       O  0.41251392  0.24396867  0.82401865    -0.57500
C1973       C  0.47537514  0.30515160  0.80616003     0.75200
O1974       O  0.47061214  0.24343083  0.85272443    -0.58600
C1975       C  0.40555270  0.22292517  0.82206407     0.75100
C1976       C  0.46215226  0.24899500  0.75233524     0.77500
Cd1977     Cd  0.45291967  0.25691051  0.81479007     1.37500
O1978       O  0.45396679  0.29325033  0.80984348    -0.57500
O1979       O  0.44833238  0.25520819  0.75925920    -0.56300
C1980       C  0.46690255  0.25261208  0.87593497     0.77500
O1981       O  0.47167840  0.24536585  0.77496493    -0.58700
O1982       O  0.48584062  0.29459266  0.80820899    -0.57100
O1983       O  0.42043207  0.21796277  0.81573005    -0.57100
O1984       O  0.45839547  0.26458201  0.86993052    -0.56300
O1985       O  0.79768294  0.24051681  0.78005350    -0.57500
C1986       C  0.78958273  0.22712536  0.87779488     0.75200
O1987       O  0.74685981  0.17214369  0.80963566    -0.58600
C1988       C  0.79308460  0.22798090  0.75609645     0.75100
C1989       C  0.81915911  0.19749109  0.82371452     0.77500
Cd1990     Cd  0.78398584  0.20825926  0.81688899     1.37500
O1991       O  0.79627453  0.24002848  0.85418448    -0.57500
O1992       O  0.82321165  0.21741920  0.81954280    -0.56300
C1993       C  0.73521366  0.18160811  0.81184302     0.77500
O1994       O  0.79828817  0.18186502  0.82346742    -0.58700
O1995       O  0.77921451  0.20592971  0.87254905    -0.57100
O1996       O  0.78429457  0.20689552  0.76077412    -0.57100
O1997       O  0.74632045  0.20276638  0.81734145    -0.56300
O1998       O  0.91049881  0.13125899  0.87882003    -0.57500
C1999       C  0.92180646  0.14762306  0.78166684     0.75200
O2000       O  0.91100243  0.19162700  0.84044185    -0.58600
C2001       C  0.91458495  0.14340054  0.90311763     0.75100
C2002       C  0.97294043  0.19114279  0.85635788     0.77500
Cd2003     Cd  0.92502445  0.16475874  0.84372054     1.37500
O2004       O  0.91406808  0.13425938  0.80470709    -0.57500
O2005       O  0.96191830  0.16970462  0.85363575    -0.56300
C2006       C  0.89010418  0.17609936  0.84061297     0.77500
O2007       O  0.96198224  0.20099730  0.85107143    -0.58700
O2008       O  0.93206156  0.16867533  0.78795615    -0.57100
O2009       O  0.92263880  0.16444107  0.89911336    -0.57100
O2010       O  0.88600416  0.15600400  0.84270959    -0.56300
O2011       O  0.80342973  0.24506383  0.52969815    -0.57500
C2012       C  0.81741356  0.25302254  0.62822139     0.75200
O2013       O  0.86227374  0.24494811  0.57195877    -0.58600
C2014       C  0.81546174  0.24931711  0.00563743     0.75100
C2015       C  0.86025044  0.30708879  0.56066561     0.77500
Cd2016     Cd  0.83539649  0.25863226  0.56674447     1.37500
O2017       O  0.80440702  0.24625555  0.60468287    -0.57500
O2018       O  0.83887030  0.29534099  0.56335236    -0.56300
C2019       C  0.84689013  0.22399110  0.57042636     0.77500
O2020       O  0.87058012  0.29623058  0.56153546    -0.58700
O2021       O  0.83854424  0.26347887  0.62284029    -0.57100
O2022       O  0.83705312  0.25812282  0.51086113    -0.57100
O2023       O  0.82685418  0.21964214  0.56645961    -0.56300
O2024       O  0.90635759  0.12641540  0.55537540    -0.57500
C2025       C  0.89765740  0.12550422  0.65359356     0.75200
O2026       O  0.85065615  0.13141509  0.58971807    -0.58600
C2027       C  0.89298959  0.11867385  0.53228264     0.75100
C2028       C  0.85026445  0.06850270  0.60630298     0.77500
Cd2029     Cd  0.87636981  0.11626878  0.59415142     1.37500
O2030       O  0.90963107  0.13061723  0.62904433    -0.57500
O2031       O  0.87148552  0.07935506  0.60169961    -0.56300
C2032       C  0.86647304  0.15223047  0.58986333     0.77500
O2033       O  0.84027538  0.07955802  0.60288700    -0.58700
O2034       O  0.87648085  0.11667134  0.65011559    -0.57100
O2035       O  0.87195024  0.10836677  0.53833460    -0.57100
O2036       O  0.88640459  0.15606973  0.59283823    -0.56300
O2037       O  0.24034455  0.46945238  0.72749018    -0.57500
C2038       C  0.23168040  0.46548367  0.62923106     0.75200
O2039       O  0.18291653  0.40853065  0.67646291    -0.58600
C2040       C  0.22722100  0.46202183  0.75091323     0.75100
C2041       C  0.18279329  0.47053473  0.69170941     0.77500
Cd2042     Cd  0.20956338  0.44978896  0.68834511     1.37500
O2043       O  0.24326173  0.46903592  0.65376268    -0.57500
O2044       O  0.20411516  0.48153672  0.68816848    -0.56300
C2045       C  0.19757127  0.40293291  0.68103623     0.77500
O2046       O  0.17320470  0.44897979  0.69246325    -0.58700
O2047       O  0.21047221  0.45635616  0.63273777    -0.57100
O2048       O  0.20625568  0.44931937  0.74502187    -0.57100
O2049       O  0.21681899  0.41871018  0.69012325    -0.56300
O2050       O  0.13844590  0.24469686  0.67832796    -0.57500
C2051       C  0.15316384  0.25571639  0.57951554     0.75200
O2052       O  0.19574192  0.30795086  0.65450909    -0.58600
C2053       C  0.15084499  0.25035965  0.70246283     0.75100
C2054       C  0.20008877  0.24894968  0.63341683     0.77500
Cd2055     Cd  0.17096065  0.26694116  0.64186877     1.37500
O2056       O  0.14028490  0.24606110  0.60277120    -0.57500
O2057       O  0.17918775  0.23689870  0.64017855    -0.56300
C2058       C  0.18025806  0.31257860  0.65121145     0.77500
O2059       O  0.20828535  0.27026942  0.63203334    -0.58700
O2060       O  0.17358323  0.27059339  0.58555102    -0.57100
O2061       O  0.17206495  0.26218483  0.69786998    -0.57100
O2062       O  0.16113652  0.29632357  0.64243352    -0.56300
O2063       O  0.29131143  0.44566268  0.94798420    -0.57500
C2064       C  0.22277047  0.40036400  0.93014310     0.75200
O2065       O  0.24627970  0.46849297  0.97780557    -0.58600
C2066       C  0.30530417  0.46686350  0.94555107     0.75100
C2067       C  0.25110658  0.46346884  0.87947772     0.77500
Cd2068     Cd  0.25698465  0.44804818  0.93925796     1.37500
O2069       O  0.24372506  0.40795307  0.92612941    -0.57500
O2070       O  0.26321404  0.45480101  0.88338182    -0.56300
C2071       C  0.25029453  0.46012662  0.00139167     0.77500
O2072       O  0.24277100  0.46674107  0.90392055    -0.58700
O2073       O  0.21787716  0.41466703  0.94004015    -0.57100
O2074       O  0.29677724  0.47879211  0.93882229    -0.57100
O2075       O  0.25704838  0.44652550  0.99579911    -0.56300
O2076       O  0.08287449  0.26117676  0.88397085    -0.57500
C2077       C  0.15052061  0.30746967  0.90201728     0.75200
O2078       O  0.13198044  0.24209269  0.92991504    -0.58600
C2079       C  0.06916440  0.23990225  0.88610453     0.75100
C2080       C  0.12603049  0.24842731  0.83113356     0.77500
Cd2081     Cd  0.11739631  0.25962206  0.89303498     1.37500
O2082       O  0.12945927  0.29974561  0.90503144    -0.57500
O2083       O  0.11702520  0.26014654  0.83616040    -0.56300
C2084       C  0.12379499  0.24609605  0.95393319     0.77500
O2085       O  0.13108080  0.24125309  0.85507720    -0.58700
O2086       O  0.15581469  0.29328296  0.89301485    -0.57100
O2087       O  0.07787251  0.22812750  0.89286981    -0.57100
O2088       O  0.11137620  0.25427531  0.94913435    -0.56300
C2089       C  0.18250070  0.36846268  0.93389552    -0.20000
C2090       C  0.20470709  0.37632034  0.92321370    -0.06500
C2091       C  0.20871689  0.36137060  0.90526580     0.14300
C2092       C  0.19054178  0.33939995  0.89830873    -0.20000
C2093       C  0.16836691  0.33153842  0.90897591    -0.06500
C2094       C  0.16437928  0.34631572  0.92734817     0.14300
C2095       C  0.14135100  0.33887096  0.94097699    -0.23400
H2096       H  0.17926727  0.37969178  0.94778740     0.15600
H2097       H  0.19378606  0.32817721  0.88441781     0.15600
C2098       C  0.23194409  0.36824499  0.89294972    -0.23300
H2099       H  0.14164312  0.35241556  0.95555483     0.05900
H2100       H  0.13570029  0.32376553  0.95597944     0.09100
H2101       H  0.12886402  0.33472094  0.92205680     0.09100
H2102       H  0.24385497  0.37220643  0.91259748     0.09100
H2103       H  0.23830168  0.38328975  0.87762314     0.09100
H2104       H  0.23169685  0.35445012  0.87903806     0.05800
C2105       C  0.15250973  0.24905939  0.99128965    -0.20000
C2106       C  0.13015213  0.24367560  0.98604644    -0.06500
C2107       C  0.11419975  0.24238996  0.51048817     0.14300
C2108       C  0.12232924  0.24465945  0.54103182    -0.20000
C2109       C  0.14474648  0.25053777  0.54696132    -0.06500
C2110       C  0.15880237  0.25224891  0.52160195     0.14300
C2111       C  0.18265536  0.25721367  0.52630982    -0.23400
H2112       H  0.16353368  0.25203603  0.97153454     0.15600
H2113       H  0.11141710  0.24292683  0.56039176     0.15600
C2114       C  0.09014516  0.23674426  0.50571108    -0.23300
H2115       H  0.19045258  0.25630146  0.50409967     0.05900
H2116       H  0.18245411  0.24457862  0.54246268     0.09100
H2117       H  0.19362984  0.27463425  0.53585219     0.09100
H2118       H  0.08254308  0.21604640  0.99316708     0.09100
H2119       H  0.08910097  0.24513128  0.99741771     0.09100
H2120       H  0.08082661  0.23327717  0.52809728     0.05800
C2121       C  0.11553439  0.24226039  0.77518118    -0.20000
C2122       C  0.13057248  0.24414566  0.79866828    -0.06500
C2123       C  0.15060605  0.24453895  0.79006479     0.14300
C2124       C  0.15590062  0.24492896  0.75833851    -0.20000
C2125       C  0.14167864  0.24476674  0.73479823    -0.06500
C2126       C  0.12068143  0.24237731  0.74344117     0.14300
C2127       C  0.10412924  0.24120236  0.71960080    -0.23400
H2128       H  0.09995902  0.24153641  0.78173580     0.15600
H2129       H  0.17181840  0.24635397  0.75189025     0.15600
C2130       C  0.16718483  0.24597084  0.81403831    -0.23300
H2131       H  0.08874767  0.23959344  0.73061905     0.05900
H2132       H  0.09850143  0.22611578  0.70434370     0.09100
H2133       H  0.11226015  0.25691918  0.70538353     0.09100
H2134       H  0.15880774  0.23068915  0.82908677     0.09100
H2135       H  0.17330992  0.26151857  0.82849942     0.09100
H2136       H  0.18222261  0.24675282  0.80313513     0.05800
C2137       C  0.26255643  0.46357966  0.55746079    -0.20000
C2138       C  0.25085030  0.46753166  0.53402800    -0.06500
C2139       C  0.23601498  0.47512790  0.54263142     0.14300
C2140       C  0.23146847  0.47611463  0.57432644    -0.20000
C2141       C  0.24163140  0.47010292  0.59759855    -0.06500
C2142       C  0.25819973  0.46479927  0.58909210     0.14300
C2143       C  0.27015763  0.45876517  0.61297249    -0.23400
H2144       H  0.27445447  0.45842182  0.55096888     0.15600
H2145       H  0.21902368  0.48052466  0.58094917     0.15600
C2146       C  0.22392692  0.48097626  0.51876665    -0.23300
H2147       H  0.28222807  0.45462833  0.60204628     0.05900
H2148       H  0.25754511  0.44366172  0.62640514     0.09100
H2149       H  0.27999829  0.47338398  0.62900122     0.09100
H2150       H  0.21313255  0.46593828  0.50381546     0.09100
H2151       H  0.22723966  0.48834908  0.00529082     0.09100
H2152       H  0.21277765  0.48628982  0.52978167     0.05800
C2153       C  0.26262179  0.47302079  0.82423963    -0.20000
C2154       C  0.24636454  0.46816053  0.84754655    -0.06500
C2155       C  0.22497846  0.46465999  0.83889183     0.14300
C2156       C  0.21978709  0.46402285  0.80716658    -0.20000
C2157       C  0.23542606  0.46704844  0.78370840    -0.06500
C2158       C  0.25757869  0.47277482  0.79252681     0.14300
C2159       C  0.27573626  0.47760627  0.76887011    -0.23400
H2160       H  0.27918086  0.47616171  0.83085500     0.15600
H2161       H  0.20300931  0.46029659  0.80062608     0.15600
C2162       C  0.20703865  0.46027410  0.86269819    -0.23300
H2163       H  0.29191465  0.48160391  0.78005224     0.05900
H2164       H  0.27931417  0.49253424  0.75465168     0.09100
H2165       H  0.27012785  0.46252026  0.75362168     0.09100
H2166       H  0.21344872  0.47513352  0.87861723     0.09100
H2167       H  0.20253825  0.44479193  0.87624070     0.09100
H2168       H  0.19125619  0.45757148  0.85169853     0.05800
C2169       C  0.20176322  0.34959499  0.67895534    -0.20000
C2170       C  0.18414486  0.33555546  0.65838339    -0.06500
C2171       C  0.17044288  0.34353970  0.64618141     0.14300
C2172       C  0.17502334  0.36533867  0.65455157    -0.20000
C2173       C  0.19283847  0.37949693  0.67485494    -0.06500
C2174       C  0.20624332  0.37129656  0.68750397     0.14300
C2175       C  0.22502999  0.38492018  0.71057416    -0.23400
H2176       H  0.21201989  0.34342451  0.68879256     0.15600
H2177       H  0.16478517  0.37151850  0.64468874     0.15600
C2178       C  0.15128637  0.32957923  0.62376532    -0.23300
H2179       H  0.23248974  0.37510781  0.71954705     0.05900
H2180       H  0.21827349  0.38971439  0.73079308     0.09100
H2181       H  0.23898324  0.40041170  0.69935035     0.09100
H2182       H  0.13777915  0.31399801  0.63539803     0.09100
H2183       H  0.15779085  0.32487908  0.60316428     0.09100
H2184       H  0.14334513  0.33908202  0.61534985     0.05800
C2185       C  0.84233751  0.16614872  0.56913773    -0.20000
C2186       C  0.86192327  0.17097979  0.58553631    -0.06500
C2187       C  0.87680448  0.19353784  0.59633193     0.14300
C2188       C  0.87157140  0.21040610  0.59048610    -0.20000
C2189       C  0.85189093  0.20551779  0.57423701    -0.06500
C2190       C  0.83715656  0.18300973  0.56315571     0.14300
C2191       C  0.81621977  0.17653628  0.54427100    -0.23400
H2192       H  0.83109085  0.14902460  0.56045212     0.15600
H2193       H  0.88280848  0.22752720  0.59919221     0.15600
C2194       C  0.89789843  0.19999371  0.61479711    -0.23300
H2195       H  0.80775906  0.15867171  0.53578744     0.05900
H2196       H  0.82091658  0.18772234  0.52361520     0.09100
H2197       H  0.80365393  0.17801700  0.55869712     0.09100
H2198       H  0.91015780  0.19813806  0.60018359     0.09100
H2199       H  0.89334438  0.18901044  0.63564673     0.09100
H2200       H  0.90662718  0.21796452  0.62290105     0.05800
C2201       C  0.03013046  0.20647045  0.89084134    -0.20000
C2202       C  0.04429713  0.22887190  0.88040535    -0.06500
C2203       C  0.03450519  0.23928847  0.86340807     0.14300
C2204       C  0.01118094  0.22663270  0.85621607    -0.20000
C2205       C  0.99730380  0.20388324  0.86548880    -0.06500
C2206       C  0.00688462  0.19389395  0.88381928     0.14300
C2207       C  0.99279758  0.17016586  0.89681735    -0.23400
H2208       H  0.03735681  0.19855103  0.90444040     0.15600
H2209       H  0.00381695  0.23444310  0.84267412     0.15600
C2210       C  0.04841300  0.26345499  0.85202837    -0.23300
H2211       H  0.00285782  0.16593044  0.91245689     0.05900
H2212       H  0.98631018  0.15745218  0.87765984     0.09100
H2213       H  0.97838938  0.16865883  0.91055945     0.09100
H2214       H  0.06211976  0.26531394  0.83635073     0.09100
H2215       H  0.05587888  0.27526959  0.87213129     0.09100
H2216       H  0.03795610  0.26854535  0.83879074     0.05800
C2217       C  0.93152853  0.15553090  0.72569025    -0.20000
C2218       C  0.91832360  0.13962965  0.74880783    -0.06500
C2219       C  0.90064530  0.11764242  0.73956883     0.14300
C2220       C  0.89526992  0.11313261  0.70788849    -0.20000
C2221       C  0.90733032  0.12971068  0.68517633    -0.06500
C2222       C  0.92636817  0.15078192  0.69398360     0.14300
C2223       C  0.94042456  0.16879277  0.67029987    -0.23400
H2224       H  0.94545361  0.17219319  0.73249618     0.15600
H2225       H  0.88092396  0.09677425  0.70082701     0.15600
C2226       C  0.88662861  0.09912177  0.76268542    -0.23300
H2227       H  0.95432506  0.18450237  0.68137835     0.05900
H2228       H  0.92954958  0.17341514  0.65720101     0.09100
H2229       H  0.94827864  0.16230755  0.65389526     0.09100
H2230       H  0.87736585  0.10448270  0.77831111     0.09100
H2231       H  0.89783480  0.09534421  0.77653326     0.09100
H2232       H  0.87380011  0.08306369  0.75102921     0.05800
C2233       C  0.92579574  0.14889735  0.95805474    -0.20000
C2234       C  0.91076517  0.13436497  0.93508821    -0.06500
C2235       C  0.89169957  0.11328370  0.94387538     0.14300
C2236       C  0.88684320  0.10721899  0.47651621    -0.20000
C2237       C  0.90114901  0.12248917  0.49965109    -0.06500
C2238       C  0.92151720  0.14385286  0.98970753     0.14300
C2239       C  0.93768291  0.15969899  0.51397592    -0.23400
H2240       H  0.94060155  0.16492120  0.95117668     0.15600
H2241       H  0.87143626  0.09172557  0.48336627     0.15600
C2242       C  0.87511083  0.09695024  0.92015715    -0.23300
H2243       H  0.95166579  0.17654539  0.00144599     0.05900
H2244       H  0.94470425  0.15170876  0.52890529     0.09100
H2245       H  0.92881467  0.16611171  0.52854565     0.09100
H2246       H  0.88386880  0.09123589  0.90414120     0.09100
H2247       H  0.86786631  0.10540294  0.90664606     0.09100
H2248       H  0.86082490  0.08160172  0.93126635     0.05800
C2249       C  0.82256797  0.26326178  0.68428922    -0.20000
C2250       C  0.80880481  0.24826322  0.66059879    -0.06500
C2251       C  0.78866881  0.22781642  0.66876153     0.14300
C2252       C  0.78343364  0.22248293  0.70026587    -0.20000
C2253       C  0.79777986  0.23688161  0.72393798    -0.06500
C2254       C  0.81729007  0.25788622  0.71587036     0.14300
C2255       C  0.83329011  0.27409801  0.74020980    -0.23400
H2256       H  0.83797632  0.27894777  0.67804923     0.15600
H2257       H  0.76839242  0.20646745  0.70648272     0.15600
C2258       C  0.77332106  0.21076620  0.64463434    -0.23300
H2259       H  0.84805366  0.28932716  0.72963202     0.05900
H2260       H  0.83991049  0.26546769  0.75462470     0.09100
H2261       H  0.82425470  0.28005840  0.75525459     0.09100
H2262       H  0.78301553  0.20514375  0.63036233     0.09100
H2263       H  0.76617021  0.21851106  0.62947267     0.09100
H2264       H  0.75883071  0.19539504  0.65537928     0.05800
C2265       C  0.77956518  0.22151609  0.93365006    -0.20000
C2266       C  0.79431868  0.23574315  0.91020484    -0.06500
C2267       C  0.81469137  0.25588620  0.91872609     0.14300
C2268       C  0.82036533  0.26042193  0.95032131    -0.20000
C2269       C  0.80631980  0.24538603  0.97362970    -0.06500
C2270       C  0.78529720  0.22602440  0.96524184     0.14300
C2271       C  0.76950835  0.20925362  0.98913223    -0.23400
H2272       H  0.76388645  0.20615844  0.92713666     0.15600
H2273       H  0.83636032  0.27540781  0.95683033     0.15600
C2274       C  0.83126287  0.27196083  0.89483545    -0.23300
H2275       H  0.75423116  0.19468191  0.97823678     0.05900
H2276       H  0.76363465  0.21775809  0.00537457     0.09100
H2277       H  0.77842501  0.20235554  0.00231758     0.09100
H2278       H  0.82301120  0.27900523  0.88048355     0.09100
H2279       H  0.83711887  0.26285308  0.87970018     0.09100
H2280       H  0.84650433  0.28651944  0.90581623     0.05800
C2281       C  0.83170717  0.16996032  0.83279498    -0.20000
C2282       C  0.83772370  0.19267345  0.82885171    -0.06500
C2283       C  0.86110304  0.20998447  0.83052438     0.14300
C2284       C  0.87752467  0.20393843  0.83482971    -0.20000
C2285       C  0.87153119  0.18115700  0.83786242    -0.06500
C2286       C  0.84809711  0.16393445  0.83743529     0.14300
C2287       C  0.83986338  0.13906647  0.84180776    -0.23400
H2288       H  0.81393080  0.15666452  0.83214216     0.15600
H2289       H  0.89530128  0.21723097  0.83559060     0.15600
C2290       C  0.86921616  0.23494812  0.82794436    -0.23300
H2291       H  0.82103138  0.12828866  0.84148912     0.05900
H2292       H  0.84566071  0.13651942  0.86464671     0.09100
H2293       H  0.84630252  0.13298125  0.82270091     0.09100
H2294       H  0.86154687  0.23995515  0.84675104     0.09100
H2295       H  0.86462022  0.23849640  0.80485271     0.09100
H2296       H  0.88795774  0.24586777  0.83028463     0.05800
C2297       C  0.34385037  0.18948207  0.84948163    -0.20000
C2298       C  0.33617117  0.16815224  0.83552039    -0.06500
C2299       C  0.35140154  0.16512076  0.81688284     0.14300
C2300       C  0.37378539  0.18337142  0.81301437    -0.20000
C2301       C  0.38142349  0.20474975  0.82678070    -0.06500
C2302       C  0.36618331  0.20779180  0.84538761     0.14300
C2303       C  0.37330412  0.23000070  0.86165626    -0.23400
H2304       H  0.33225700  0.19189031  0.86377514     0.15600
H2305       H  0.38537100  0.18097678  0.79868753     0.15600
C2306       C  0.34416461  0.14306944  0.80006365    -0.23300
H2307       H  0.35942809  0.22889839  0.87626295     0.05900
H2308       H  0.37792279  0.24357707  0.84425709     0.09100
H2309       H  0.38801458  0.23474829  0.87708226     0.09100
H2310       H  0.32961870  0.13870013  0.78448898     0.09100
H2311       H  0.33927176  0.12922224  0.81711009     0.09100
H2312       H  0.35805959  0.14419598  0.78548290     0.05800
C2313       C  0.24449733  0.23562854  0.60339385    -0.20000
C2314       C  0.23427308  0.21267034  0.61198532    -0.06500
C2315       C  0.21381300  0.20250461  0.62936674     0.14300
C2316       C  0.20386291  0.21524721  0.63669734    -0.20000
C2317       C  0.21347056  0.23791790  0.62716306    -0.06500
C2318       C  0.23429232  0.24836200  0.61050673     0.14300
C2319       C  0.24558533  0.27257224  0.59934775    -0.23400
H2320       H  0.26028267  0.24349180  0.59042829     0.15600
H2321       H  0.18813894  0.20719699  0.64981486     0.15600
C2322       C  0.20239223  0.17834555  0.64105865    -0.23300
H2323       H  0.26146097  0.27769582  0.58625716     0.05900
H2324       H  0.25012139  0.28429001  0.61953433     0.09100
H2325       H  0.23395890  0.27449090  0.58360503     0.09100
H2326       H  0.21454534  0.17604010  0.65506874     0.09100
H2327       H  0.19606656  0.16622500  0.62119199     0.09100
H2328       H  0.18752017  0.17394557  0.65609104     0.05800
C2329       C  0.24642012  0.12419610  0.69443414    -0.20000
C2330       C  0.25149697  0.14648656  0.68932598    -0.06500
C2331       C  0.25437684  0.16053464  0.71534925     0.14300
C2332       C  0.25342178  0.15232516  0.74550908    -0.20000
C2333       C  0.25014882  0.13066689  0.75051208    -0.06500
C2334       C  0.24601961  0.11618823  0.72456166     0.14300
C2335       C  0.24121904  0.09228977  0.72820703    -0.23400
H2336       H  0.24388384  0.11330873  0.67460703     0.15600
H2337       H  0.25634367  0.16337028  0.76529425     0.15600
C2338       C  0.25834661  0.18414267  0.71174869    -0.23300
H2339       H  0.23666053  0.08294326  0.70569000     0.05900
H2340       H  0.22677021  0.08267680  0.74446715     0.09100
H2341       H  0.25649474  0.09265374  0.73708997     0.09100
H2342       H  0.24457050  0.18341787  0.69753691     0.09100
H2343       H  0.27502401  0.19549708  0.70054744     0.09100
H2344       H  0.25852730  0.19189639  0.73457751     0.05800
C2345       C  0.23852479  0.14773154  0.97680617    -0.20000
C2346       C  0.24774877  0.14340371  0.50152733    -0.06500
C2347       C  0.25473663  0.12798043  0.49362453     0.14300
C2348       C  0.25152313  0.11672193  0.96113901    -0.20000
C2349       C  0.24692729  0.12763586  0.93725337    -0.06500
C2350       C  0.23969282  0.14288675  0.94525027     0.14300
C2351       C  0.23453112  0.15517986  0.92085362    -0.23400
H2352       H  0.23402244  0.16019012  0.98301519     0.15600
H2353       H  0.25689657  0.10489684  0.95515661     0.15600
C2354       C  0.26242872  0.11776556  0.51802178    -0.23300
H2355       H  0.22982795  0.16696744  0.93137588     0.05900
H2356       H  0.22003725  0.14269408  0.90633390     0.09100
H2357       H  0.24970307  0.16538157  0.90595640     0.09100
H2358       H  0.24816736  0.10708258  0.53406370     0.09100
H2359       H  0.27687218  0.13150133  0.53138626     0.09100
H2360       H  0.26817977  0.10678636  0.50757946     0.05800
C2361       C  0.46947229  0.22761229  0.71175698    -0.20000
C2362       C  0.46606634  0.24549243  0.71936146    -0.06500
C2363       C  0.46479121  0.25865173  0.69508052     0.14300
C2364       C  0.46470702  0.25217649  0.66403984    -0.20000
C2365       C  0.46560978  0.23279807  0.65655883    -0.06500
C2366       C  0.46908929  0.22096841  0.68064315     0.14300
C2367       C  0.47249111  0.20141433  0.67377663    -0.23400
H2368       H  0.47118042  0.21798872  0.73027062     0.15600
H2369       H  0.46261791  0.26158682  0.64556910     0.15600
C2370       C  0.46356555  0.27959101  0.70152454    -0.23300
H2371       H  0.47675365  0.19539532  0.69512138     0.05900
H2372       H  0.48669029  0.20689762  0.65700261     0.09100
H2373       H  0.45675339  0.18679672  0.66399192     0.09100
H2374       H  0.47787831  0.29148786  0.71680195     0.09100
H2375       H  0.44717558  0.27486328  0.71274495     0.09100
H2376       H  0.46473740  0.28878676  0.67979180     0.05800
C2377       C  0.46980670  0.22780161  0.91489796    -0.20000
C2378       C  0.47035373  0.24808844  0.90859321    -0.06500
C2379       C  0.47128576  0.26193358  0.93391254     0.14300
C2380       C  0.46957042  0.25409650  0.96445974    -0.20000
C2381       C  0.46636888  0.23263042  0.97040624    -0.06500
C2382       C  0.46754501  0.21975008  0.94542208     0.14300
C2383       C  0.46630283  0.19745325  0.95063650    -0.23400
H2384       H  0.46962014  0.21738351  0.89573905     0.15600
H2385       H  0.46920132  0.26416162  0.98371236     0.15600
C2386       C  0.47363573  0.28478320  0.92923983    -0.23300
H2387       H  0.46932865  0.19070701  0.92879120     0.05900
H2388       H  0.44923477  0.18443847  0.95929665     0.09100
H2389       H  0.47943413  0.19987637  0.96771548     0.09100
H2390       H  0.45799697  0.28263711  0.91860937     0.09100
H2391       H  0.48854110  0.29558051  0.91419202     0.09100
H2392       H  0.47620756  0.29396130  0.95163200     0.05800
C2393       C  0.36222566  0.17503586  0.58835956    -0.20000
C2394       C  0.37729061  0.19286079  0.56888655    -0.06500
C2395       C  0.37029014  0.20705693  0.55557964     0.14300
C2396       C  0.34852659  0.20303184  0.56230478    -0.20000
C2397       C  0.33355216  0.18534719  0.58207865    -0.06500
C2398       C  0.34062110  0.17122883  0.59547290     0.14300
C2399       C  0.32602689  0.15271147  0.61833023    -0.23400
H2400       H  0.36768051  0.16438580  0.59893586     0.15600
H2401       H  0.34308722  0.21371327  0.55179362     0.15600
C2402       C  0.38533446  0.22617302  0.53375556    -0.23300
H2403       H  0.33507108  0.14469485  0.62818717     0.05900
H2404       H  0.31053205  0.13906163  0.60665812     0.09100
H2405       H  0.32124197  0.15995893  0.63797868     0.09100
H2406       H  0.39066326  0.21950153  0.51401324     0.09100
H2407       H  0.40051428  0.23955366  0.54630530     0.09100
H2408       H  0.37644096  0.23437541  0.52399576     0.05800
C2409       C  0.81533383  0.02988417  0.60637798    -0.20000
C2410       C  0.83800381  0.04421461  0.61558606    -0.06500
C2411       C  0.84853085  0.03512722  0.63377070     0.14300
C2412       C  0.83633018  0.01197108  0.64140455    -0.20000
C2413       C  0.81390521  0.99736026  0.63133121    -0.06500
C2414       C  0.80320441  0.00654812  0.61365894     0.14300
C2415       C  0.77939281  0.99191145  0.60133436    -0.23400
H2416       H  0.80725131  0.03686805  0.59262558     0.15600
H2417       H  0.84457044  0.00516109  0.65516983     0.15600
C2418       C  0.87247850  0.04966768  0.64590210    -0.23300
H2419       H  0.77415125  0.00187381  0.58719492     0.05900
H2420       H  0.76722599  0.98433822  0.62095223     0.09100
H2421       H  0.77833527  0.97822415  0.58625018     0.09100
H2422       H  0.87411616  0.06425257  0.65944530     0.09100
H2423       H  0.88474429  0.05597263  0.62629301     0.09100
H2424       H  0.87722278  0.03997180  0.66146883     0.05800
C2425       C  0.68501797  0.83002556  0.67072110    -0.20000
C2426       C  0.66818385  0.83561620  0.67375253    -0.06500
C2427       C  0.67452492  0.85875132  0.67077837     0.14300
C2428       C  0.69726103  0.87531848  0.66467017    -0.20000
C2429       C  0.71406718  0.86973102  0.66135626    -0.06500
C2430       C  0.70779135  0.84663134  0.66467633     0.14300
C2431       C  0.72474995  0.83906244  0.66224471    -0.23400
H2432       H  0.68034321  0.81242912  0.67304773     0.15600
H2433       H  0.70190802  0.89290362  0.66233903     0.15600
C2434       C  0.65767656  0.86644768  0.67360462    -0.23300
H2435       H  0.71671177  0.82046842  0.66600410     0.05900
H2436       H  0.73813827  0.84786338  0.68019295     0.09100
H2437       H  0.73247709  0.84280957  0.63868631     0.09100
H2438       H  0.64984295  0.86237996  0.69710238     0.09100
H2439       H  0.64437756  0.85803753  0.65545838     0.09100
H2440       H  0.66583000  0.88510846  0.67042692     0.05800
C2441       C  0.57803580  0.77813558  0.56754670    -0.20000
C2442       C  0.58130196  0.79347829  0.59164421    -0.06500
C2443       C  0.58453230  0.81495003  0.58391786     0.14300
C2444       C  0.58555308  0.82083522  0.55248949    -0.20000
C2445       C  0.58342419  0.80594023  0.52840194    -0.06500
C2446       C  0.57892142  0.78400042  0.53606995     0.14300
C2447       C  0.57625738  0.76712376  0.51139346    -0.23400
H2448       H  0.57552146  0.76167189  0.57339282     0.15600
H2449       H  0.58876859  0.83757752  0.54666100     0.15600
C2450       C  0.58830169  0.83234578  0.60844013    -0.23300
H2451       H  0.57356144  0.75112086  0.52165381     0.05900
H2452       H  0.59179027  0.77450943  0.49675045     0.09100
H2453       H  0.56130386  0.76265019  0.49664965     0.09100
H2454       H  0.60346263  0.83657576  0.62258196     0.09100
H2455       H  0.57312187  0.82555265  0.62367828     0.09100
H2456       H  0.59120848  0.84840059  0.59806467     0.05800
C2457       C  0.58088320  0.78721642  0.83485788    -0.20000
C2458       C  0.58156358  0.80762771  0.84095947    -0.06500
C2459       C  0.58047403  0.82017624  0.81567867     0.14300
C2460       C  0.58051836  0.81287261  0.78506154    -0.20000
C2461       C  0.58208585  0.79366892  0.77905275    -0.06500
C2462       C  0.58131046  0.78014004  0.80428903     0.14300
C2463       C  0.58080670  0.75815122  0.79927440    -0.23400
H2464       H  0.58127096  0.77733992  0.85411536     0.15600
H2465       H  0.58061253  0.82293915  0.76571861     0.15600
C2466       C  0.57928470  0.84126504  0.82061096    -0.23300
H2467       H  0.57852184  0.74904342  0.82149348     0.05900
H2468       H  0.59700253  0.76151525  0.78882396     0.09100
H2469       H  0.56643629  0.74674227  0.78374849     0.09100
H2470       H  0.59539577  0.85511274  0.83075040     0.09100
H2471       H  0.56488374  0.83739387  0.83631993     0.09100
H2472       H  0.57660929  0.84768342  0.79838665     0.05800
C2473       C  0.80079089  0.88648043  0.51439932    -0.20000
C2474       C  0.80103511  0.90108731  0.99114624    -0.06500
C2475       C  0.80147344  0.92128798  0.99926098     0.14300
C2476       C  0.80115336  0.92591217  0.53082641    -0.20000
C2477       C  0.79999467  0.91124208  0.55428871    -0.06500
C2478       C  0.80067769  0.89170737  0.54603387     0.14300
C2479       C  0.80002468  0.87569174  0.57032328    -0.23400
H2480       H  0.80019804  0.87090603  0.50803028     0.15600
H2481       H  0.80087206  0.94102562  0.53729739     0.15600
C2482       C  0.80107119  0.93677522  0.97496607    -0.23300
H2483       H  0.80001976  0.86092431  0.55969416     0.05900
H2484       H  0.78441892  0.86907571  0.58466961     0.09100
H2485       H  0.81521539  0.88478449  0.58548543     0.09100
H2486       H  0.78561000  0.92724344  0.96037509     0.09100
H2487       H  0.81645348  0.94365948  0.96010642     0.09100
H2488       H  0.80090710  0.95145796  0.98558082     0.05800
C2489       C  0.80338173  0.92136212  0.79704180    -0.20000
C2490       C  0.79773114  0.89893363  0.80276479    -0.06500
C2491       C  0.79505213  0.88463676  0.77714356     0.14300
C2492       C  0.79686442  0.89275153  0.74672566    -0.20000
C2493       C  0.80065873  0.91452051  0.74104254    -0.06500
C2494       C  0.80457431  0.92925109  0.76656061     0.14300
C2495       C  0.81007162  0.95330470  0.76192015    -0.23400
H2496       H  0.80577168  0.93244681  0.81655841     0.15600
H2497       H  0.79398927  0.88149244  0.72722109     0.15600
C2498       C  0.79026673  0.86078073  0.78147018    -0.23300
H2499       H  0.81428086  0.96286325  0.78424384     0.05900
H2500       H  0.79528547  0.95330573  0.75184065     0.09100
H2501       H  0.82495667  0.96246064  0.74620828     0.09100
H2502       H  0.77321120  0.84983111  0.79192251     0.09100
H2503       H  0.80342643  0.86111119  0.79666262     0.09100
H2504       H  0.79043300  0.85281896  0.75898551     0.05800
C2505       C  0.69527926  0.83787919  0.90616218    -0.20000
C2506       C  0.71382347  0.85990773  0.91139951    -0.06500
C2507       C  0.70968610  0.87694904  0.92243448     0.14300
C2508       C  0.68721671  0.87137608  0.92769808    -0.20000
C2509       C  0.66866842  0.84927347  0.92260075    -0.06500
C2510       C  0.67286721  0.83226535  0.91157858     0.14300
C2511       C  0.65403003  0.80815695  0.90486400    -0.23400
H2512       H  0.69831736  0.82481929  0.89763752     0.15600
H2513       H  0.68414225  0.88442555  0.93615742     0.15600
C2514       C  0.72865665  0.90092853  0.92946551    -0.23300
H2515       H  0.66060498  0.79761351  0.89534241     0.05900
H2516       H  0.64220453  0.80812359  0.88737373     0.09100
H2517       H  0.64473590  0.79990301  0.92662362     0.09100
H2518       H  0.73818834  0.90922899  0.90786848     0.09100
H2519       H  0.74027162  0.90068655  0.94706997     0.09100
H2520       H  0.72216788  0.91155076  0.93896854     0.05800
C2521       C  0.87756456  0.68851471  0.59576804    -0.20000
C2522       C  0.87243458  0.70579031  0.59655912    -0.06500
C2523       C  0.84990087  0.70006554  0.58971773     0.14300
C2524       C  0.83348183  0.67750156  0.58207746    -0.20000
C2525       C  0.83868618  0.66031765  0.58094930    -0.06500
C2526       C  0.86108277  0.66591590  0.58827164     0.14300
C2527       C  0.86783433  0.64827364  0.58908106    -0.23400
H2528       H  0.89468137  0.69269214  0.60106810     0.15600
H2529       H  0.81635539  0.67327914  0.57672418     0.15600
C2530       C  0.84276982  0.71742873  0.58988951    -0.23300
H2531       H  0.88572361  0.65564653  0.59664004     0.05900
H2532       H  0.86628551  0.64091885  0.56552187     0.09100
H2533       H  0.85686883  0.63462990  0.60576835     0.09100
H2534       H  0.85285712  0.73089632  0.57254653     0.09100
H2535       H  0.84515613  0.72501671  0.61346618     0.09100
H2536       H  0.82457043  0.70975402  0.58375075     0.05800
C2537       C  0.77709401  0.57426183  0.68206027    -0.20000
C2538       C  0.79026859  0.57171507  0.65903033    -0.06500
C2539       C  0.80820991  0.56867866  0.66854757     0.14300
C2540       C  0.81334671  0.56988572  0.70034469    -0.20000
C2541       C  0.80118411  0.57408061  0.72291584    -0.06500
C2542       C  0.78241693  0.57562674  0.71381427     0.14300
C2543       C  0.76900876  0.58034075  0.73723035    -0.23400
H2544       H  0.76320607  0.57638473  0.67513142     0.15600
H2545       H  0.82768725  0.56859109  0.70760781     0.15600
C2546       C  0.82291576  0.56544329  0.64559373    -0.23300
H2547       H  0.75532257  0.58178224  0.72600841     0.05900
H2548       H  0.78042387  0.59659546  0.74960889     0.09100
H2549       H  0.76098623  0.56627724  0.75432545     0.09100
H2550       H  0.83196057  0.58056896  0.63033955     0.09100
H2551       H  0.81226859  0.54994827  0.63134503     0.09100
H2552       H  0.83598097  0.56327858  0.65739445     0.05800
C2553       C  0.78774168  0.56929831  0.91673863    -0.20000
C2554       C  0.80902394  0.57235938  0.90933432    -0.06500
C2555       C  0.82337010  0.57357309  0.93386373     0.14300
C2556       C  0.81680663  0.57360576  0.96487213    -0.20000
C2557       C  0.79676446  0.57326488  0.97190365    -0.06500
C2558       C  0.78156533  0.57007113  0.94764385     0.14300
C2559       C  0.75888690  0.56769764  0.95412594    -0.23400
H2560       H  0.77647697  0.56788225  0.89818161     0.15600
H2561       H  0.82819509  0.57563631  0.98361630     0.15600
C2562       C  0.84582834  0.57537711  0.92782016    -0.23300
H2563       H  0.74864413  0.56390098  0.93260195     0.05900
H2564       H  0.76127454  0.58372118  0.96404510     0.09100
H2565       H  0.74905214  0.55355203  0.97069104     0.09100
H2566       H  0.85798945  0.59203212  0.91717196     0.09100
H2567       H  0.84331228  0.56132588  0.91221105     0.09100
H2568       H  0.85368714  0.57418471  0.94966643     0.05800
C2569       C  0.81207795  0.79637044  0.87041499    -0.20000
C2570       C  0.83465736  0.80643194  0.88067315    -0.06500
C2571       C  0.84399992  0.82634107  0.89931248     0.14300
C2572       C  0.83137140  0.83670604  0.90473038    -0.20000
C2573       C  0.80948934  0.82777639  0.89241661    -0.06500
C2574       C  0.79929675  0.80671851  0.87616799     0.14300
C2575       C  0.77533593  0.79533197  0.86403905    -0.23400
H2576       H  0.80466354  0.78076664  0.85695636     0.15600
H2577       H  0.83895813  0.85231345  0.91822068     0.15600
C2578       C  0.86714753  0.83672559  0.91415662    -0.23300
H2579       H  0.77026782  0.77907449  0.85187776     0.05900
H2580       H  0.77378854  0.80664206  0.84724399     0.09100
H2581       H  0.76336247  0.79139645  0.88369731     0.09100
H2582       H  0.88061104  0.84380448  0.89609624     0.09100
H2583       H  0.86815170  0.82365438  0.92789311     0.09100
H2584       H  0.87068008  0.85091657  0.93020362     0.05800
C2585       C  0.92410891  0.80210086  0.75483492    -0.20000
C2586       C  0.90210968  0.79741837  0.76161254    -0.06500
C2587       C  0.88749060  0.79454665  0.73645505     0.14300
C2588       C  0.89437590  0.79400569  0.70578080    -0.20000
C2589       C  0.91531321  0.79605000  0.69948297    -0.06500
C2590       C  0.93087287  0.80139427  0.72415376     0.14300
C2591       C  0.95467003  0.80645963  0.71832429    -0.23400
H2592       H  0.93570765  0.80509020  0.77373500     0.15600
H2593       H  0.88272690  0.79053399  0.68674922     0.15600
C2594       C  0.86444207  0.79164888  0.74140185    -0.23300
H2595       H  0.96502600  0.81204535  0.73990067     0.05900
H2596       H  0.96324118  0.82033218  0.70100741     0.09100
H2597       H  0.95430725  0.79106228  0.70963058     0.09100
H2598       H  0.86611685  0.80585951  0.75591404     0.09100
H2599       H  0.85278386  0.77511392  0.75272190     0.09100
H2600       H  0.85645826  0.79173791  0.71906035     0.05800
C2601       C  0.90071479  0.76770892  0.96432773    -0.20000
C2602       C  0.90747163  0.78812870  0.94873517    -0.06500
C2603       C  0.92094400  0.80903187  0.96479749     0.14300
C2604       C  0.92668077  0.80876642  0.99623520    -0.20000
C2605       C  0.91785084  0.78529157  0.51076907    -0.06500
C2606       C  0.90651597  0.76739697  0.99533017     0.14300
C2607       C  0.89878743  0.74191055  0.50815051    -0.23400
H2608       H  0.89044876  0.75163894  0.95219502     0.15600
H2609       H  0.93258862  0.82156047  0.50932140     0.15600
C2610       C  0.92868876  0.83150890  0.94940142    -0.23300
H2611       H  0.88837208  0.72754770  0.49196483     0.05900
H2612       H  0.88839380  0.73939082  0.52925742     0.09100
H2613       H  0.91391648  0.74102261  0.51438200     0.09100
H2614       H  0.91373480  0.83214545  0.94136771     0.09100
H2615       H  0.93978309  0.83372402  0.92926553     0.09100
H2616       H  0.93856754  0.84602451  0.96560480     0.05800
C2617       C  0.86781891  0.67792534  0.84386047    -0.20000
C2618       C  0.84679088  0.66220959  0.83047606    -0.06500
C2619       C  0.83107079  0.66919986  0.82441155     0.14300
C2620       C  0.83724245  0.69179065  0.83079979    -0.20000
C2621       C  0.85855155  0.70765896  0.84335704    -0.06500
C2622       C  0.87385337  0.70037508  0.85064432     0.14300
C2623       C  0.89638399  0.71579610  0.86630691    -0.23400
H2624       H  0.87968244  0.67256875  0.84932472     0.15600
H2625       H  0.82538041  0.69718096  0.82550582     0.15600
C2626       C  0.80789560  0.65327748  0.81078513    -0.23300
H2627       H  0.90523539  0.70665023  0.87221173     0.05900
H2628       H  0.89370397  0.72264061  0.88831198     0.09100
H2629       H  0.90777672  0.72996579  0.85061189     0.09100
H2630       H  0.79769830  0.63903005  0.82704743     0.09100
H2631       H  0.80961308  0.64654634  0.78806271     0.09100
H2632       H  0.79831251  0.66195361  0.80674073     0.05800
C2633       C  0.19740021  0.00533496  0.85520954    -0.20000
C2634       C  0.20844275  0.99719394  0.87357517    -0.06500
C2635       C  0.23125968  0.01225907  0.88244200     0.14300
C2636       C  0.24214012  0.03518425  0.87341170    -0.20000
C2637       C  0.23079830  0.04354274  0.85597765    -0.06500
C2638       C  0.20813578  0.02820149  0.84634067     0.14300
C2639       C  0.19497084  0.03549428  0.82662674    -0.23400
H2640       H  0.18004180  0.99368356  0.84789976     0.15600
H2641       H  0.25944676  0.04681419  0.88090890     0.15600
C2642       C  0.24395620  0.00462880  0.90245592    -0.23300
H2643       H  0.17814205  0.02083432  0.81969827     0.05900
H2644       H  0.20457288  0.04368097  0.80500914     0.09100
H2645       H  0.19178011  0.04746688  0.83986571     0.09100
H2646       H  0.24593304  0.99160833  0.88990583     0.09100
H2647       H  0.23456560  0.99742017  0.92453674     0.09100
H2648       H  0.26123019  0.01895178  0.90841686     0.05800
C2649       C  0.17230346  0.83221191  0.89852446    -0.20000
C2650       C  0.19189216  0.83697210  0.91489769    -0.06500
C2651       C  0.20693393  0.85951909  0.92560104     0.14300
C2652       C  0.20184338  0.87643839  0.91974690    -0.20000
C2653       C  0.18216227  0.87163466  0.90362174    -0.06500
C2654       C  0.16724947  0.84916178  0.89260917     0.14300
C2655       C  0.14625024  0.84282003  0.87395456    -0.23400
H2656       H  0.16093171  0.81510516  0.88992827     0.12000
H2657       H  0.21320861  0.89354615  0.92834641     0.15600
C2658       C  0.22814593  0.86602665  0.94384527    -0.23300
H2659       H  0.13756828  0.82490841  0.86562587     0.05900
H2660       H  0.15092636  0.85392516  0.85321405     0.09100
H2661       H  0.13388294  0.84455061  0.88849763     0.09100
H2662       H  0.24027890  0.86403266  0.92912562     0.09100
H2663       H  0.22370432  0.85522043  0.96486634     0.09100
H2664       H  0.23701412  0.88405086  0.95172008     0.05800
C2665       C  0.03422293  0.81025739  0.63862746    -0.20000
C2666       C  0.04719519  0.83320816  0.62982465    -0.06500
C2667       C  0.03644435  0.84307797  0.61394015     0.14300
C2668       C  0.01307877  0.83003619  0.60844351    -0.20000
C2669       C  0.99982686  0.80742674  0.61848763    -0.06500
C2670       C  0.01064788  0.79724335  0.63343037     0.14300
C2671       C  0.99761227  0.77302048  0.64477540    -0.23400
H2672       H  0.04248786  0.80261452  0.65046471     0.15600
H2673       H  0.00502147  0.83784359  0.59648581     0.15600
C2674       C  0.04930127  0.86724476  0.60215892    -0.23300
H2675       H  0.00887030  0.76815460  0.65628725     0.05900
H2676       H  0.98932181  0.76121948  0.62485425     0.09100
H2677       H  0.98461057  0.77089978  0.66201641     0.09100
H2678       H  0.06345067  0.86982247  0.58681444     0.09100
H2679       H  0.05600589  0.87937918  0.62199544     0.09100
H2680       H  0.03828611  0.87135973  0.58842220     0.05800
C2681       C  0.12089429  0.88903016  0.53179864    -0.20000
C2682       C  0.13411134  0.90413630  0.55567486    -0.06500
C2683       C  0.15192413  0.92629468  0.54780378     0.14300
C2684       C  0.15700078  0.93204678  0.51622653    -0.20000
C2685       C  0.14322070  0.91930769  0.99195041    -0.06500
C2686       C  0.12351707  0.89884742  0.00126012     0.14300
C2687       C  0.10750001  0.88144699  0.97797317    -0.23400
H2688       H  0.10698531  0.87216442  0.53774082     0.15600
H2689       H  0.17254924  0.95051622  0.00779509     0.15600
C2690       C  0.16622674  0.94357887  0.57230623    -0.23300
H2691       H  0.09342082  0.86616565  0.98948856     0.05900
H2692       H  0.11681802  0.87574821  0.96302216     0.09100
H2693       H  0.09980255  0.88892993  0.96336300     0.09100
H2694       H  0.17466174  0.93688986  0.58698156     0.09100
H2695       H  0.15536532  0.94744226  0.58704901     0.09100
H2696       H  0.17966703  0.95980985  0.56186440     0.05800
C2697       C  0.11293556  0.88275383  0.76546044    -0.20000
C2698       C  0.12461206  0.89919275  0.74223713    -0.06500
C2699       C  0.14094412  0.92177701  0.75131119     0.14300
C2700       C  0.14616840  0.92674557  0.78297416    -0.20000
C2701       C  0.13567235  0.90985025  0.80573886    -0.06500
C2702       C  0.11847909  0.88771064  0.79702220     0.14300
C2703       C  0.10725391  0.86884698  0.82054410    -0.23400
H2704       H  0.10025962  0.86549338  0.75879320     0.15600
H2705       H  0.15936643  0.94373967  0.78995466     0.15600
C2706       C  0.15394546  0.94049178  0.72801502    -0.23300
H2707       H  0.09475686  0.85236015  0.80952104     0.05900
H2708       H  0.09811172  0.87303463  0.83810561     0.09100
H2709       H  0.12028512  0.86661937  0.83232288     0.09100
H2710       H  0.14195952  0.94306117  0.71402888     0.09100
H2711       H  0.16404076  0.93606669  0.71253354     0.09100
H2712       H  0.16597785  0.95695080  0.73951084     0.05800
C2713       C  0.26455741  0.81842500  0.55869661    -0.20000
C2714       C  0.24912999  0.80558823  0.58246648    -0.06500
C2715       C  0.22753781  0.78688357  0.57422033     0.14300
C2716       C  0.22167676  0.78226150  0.54266065    -0.20000
C2717       C  0.23664758  0.79582525  0.51896106    -0.06500
C2718       C  0.25861536  0.81381533  0.52709175     0.14300
C2719       C  0.27536305  0.82909868  0.50281630    -0.23400
H2720       H  0.28109273  0.83275966  0.56492445     0.15600
H2721       H  0.20486241  0.76836748  0.53645146     0.15600
C2722       C  0.20997988  0.77257781  0.59835614    -0.23300
H2723       H  0.29138673  0.84282403  0.51341796     0.05900
H2724       H  0.26792676  0.83724757  0.48902932     0.09100
H2725       H  0.27807096  0.82146646  0.98574911     0.09100
H2726       H  0.20603793  0.78346570  0.61298171     0.09100
H2727       H  0.21642147  0.76399462  0.61318106     0.09100
H2728       H  0.19384970  0.75915021  0.58760246     0.05800
C2729       C  0.25459746  0.81344788  0.82675089    -0.20000
C2730       C  0.23495165  0.79232442  0.83254384    -0.06500
C2731       C  0.22357146  0.77735828  0.80732356     0.14300
C2732       C  0.23094268  0.78479084  0.77678830    -0.20000
C2733       C  0.24921125  0.80685865  0.77085611    -0.06500
C2734       C  0.26186300  0.82098206  0.79628615     0.14300
C2735       C  0.28307490  0.84399177  0.79171404    -0.23400
H2736       H  0.26361656  0.82470400  0.84612692     0.15600
H2737       H  0.22165324  0.77369516  0.75741321     0.15600
C2738       C  0.20378490  0.75351739  0.81238677    -0.23300
H2739       H  0.29173266  0.85163825  0.81413382     0.05900
H2740       H  0.27883042  0.85597272  0.78109974     0.09100
H2741       H  0.29522658  0.84227881  0.77660614     0.09100
H2742       H  0.18904194  0.75391969  0.82201260     0.09100
H2743       H  0.20878356  0.74439484  0.82864880     0.09100
H2744       H  0.19819452  0.74365730  0.79029763     0.05800
C2745       C  0.19484041  0.87637529  0.66522132    -0.20000
C2746       C  0.17289666  0.85807251  0.65814629    -0.06500
C2747       C  0.16945943  0.83595176  0.65549964     0.14300
C2748       C  0.18788966  0.83290397  0.65990559    -0.20000
C2749       C  0.20983078  0.85118976  0.66693888    -0.06500
C2750       C  0.21327754  0.87330075  0.66967240     0.14300
C2751       C  0.23611141  0.89377255  0.67768061    -0.23400
H2752       H  0.19766536  0.89336618  0.66749140     0.15600
H2753       H  0.18505405  0.81591055  0.65760978     0.15600
C2754       C  0.14661613  0.81536490  0.64777483    -0.23300
H2755       H  0.23539791  0.90949808  0.67977735     0.05900
H2756       H  0.24859375  0.89669359  0.65914486     0.09100
H2757       H  0.24204115  0.89108234  0.70031360     0.09100
H2758       H  0.14060423  0.81780724  0.62505113     0.09100
H2759       H  0.13418175  0.81256191  0.66633064     0.09100
H2760       H  0.14734938  0.79963823  0.64597082     0.05800
C2761       C  0.87813613  0.53465139  0.77096025    -0.20000
C2762       C  0.90136249  0.54606439  0.77822795    -0.06500
C2763       C  0.91198293  0.56854953  0.79024237     0.14300
C2764       C  0.89867090  0.57821584  0.79662166    -0.20000
C2765       C  0.87509036  0.56594360  0.79148651    -0.06500
C2766       C  0.86488700  0.54415590  0.77736142     0.14300
C2767       C  0.84008633  0.53071979  0.76841387    -0.23400
H2768       H  0.87001944  0.51777393  0.76074605     0.15600
H2769       H  0.90658701  0.59513345  0.80664431     0.15600
C2770       C  0.93703175  0.58224121  0.79727483    -0.23300
H2771       H  0.83568872  0.51499615  0.75526270     0.05900
H2772       H  0.83600682  0.54118520  0.75336668     0.09100
H2773       H  0.82925140  0.52534843  0.78953486     0.09100
H2774       H  0.94689322  0.58467874  0.77564635     0.09100
H2775       H  0.94132733  0.57332894  0.81486952     0.09100
H2776       H  0.94228300  0.59936142  0.80670085     0.05800
C2777       C  0.16793614  0.51653404  0.70040988    -0.20000
C2778       C  0.14544024  0.50393110  0.71117152    -0.06500
C2779       C  0.13473868  0.47997738  0.71336515     0.14300
C2780       C  0.14714163  0.46955523  0.70576700    -0.20000
C2781       C  0.16997551  0.48234717  0.69614546    -0.06500
C2782       C  0.18032638  0.50625394  0.69283582     0.14300
C2783       C  0.20439579  0.52140293  0.68138943    -0.23400
H2784       H  0.17609541  0.53481849  0.69794959     0.15600
H2785       H  0.13904687  0.45127806  0.70815150     0.15600
C2786       C  0.11057203  0.46526780  0.72441098    -0.23300
H2787       H  0.20895461  0.53935640  0.67879042     0.05900
H2788       H  0.20643902  0.51544084  0.65823000     0.09100
H2789       H  0.21655644  0.52144422  0.69826282     0.09100
H2790       H  0.09888357  0.46662223  0.70812098     0.09100
H2791       H  0.10877664  0.47067890  0.74809795     0.09100
H2792       H  0.10530607  0.44703757  0.72553210     0.05800
C2793       C  0.02824114  0.50709768  0.74699923    -0.20000
C2794       C  0.04606263  0.52980611  0.74410880    -0.06500
C2795       C  0.04118891  0.54737933  0.74809265     0.14300
C2796       C  0.01877090  0.54164669  0.75405697    -0.20000
C2797       C  0.00092500  0.51894195  0.75675724    -0.06500
C2798       C  0.00586969  0.50137604  0.75339169     0.14300
C2799       C  0.98791233  0.47648848  0.75632881    -0.23400
H2800       H  0.03181585  0.49357987  0.74429317     0.15600
H2801       H  0.01520290  0.55516811  0.75678010     0.15600
C2802       C  0.05931021  0.57230108  0.74661005    -0.23300
H2803       H  0.99502036  0.46535917  0.75295564     0.05900
H2804       H  0.97460012  0.47164270  0.73839064     0.09100
H2805       H  0.98026495  0.47304611  0.77993347     0.09100
H2806       H  0.06725072  0.57650032  0.72318684     0.09100
H2807       H  0.07237140  0.57643229  0.76470043     0.09100
H2808       H  0.05229564  0.58342578  0.75087244     0.05800
C2809       C  0.16004876  0.67211385  0.93661159    -0.20000
C2810       C  0.14212991  0.66386112  0.95804512    -0.06500
C2811       C  0.13473460  0.67842196  0.96880367     0.14300
C2812       C  0.14624643  0.70119755  0.95885286    -0.20000
C2813       C  0.16491531  0.70973078  0.93845041    -0.06500
C2814       C  0.17143204  0.69469565  0.92647124     0.14300
C2815       C  0.19009921  0.70198793  0.90265619    -0.23400
H2816       H  0.16526399  0.66072612  0.92770534     0.15600
H2817       H  0.14113065  0.71260087  0.96796637     0.15600
C2818       C  0.11092724  0.65753520  0.42634325    -0.23300
H2819       H  0.19131154  0.68738997  0.89403176     0.05900
H2820       H  0.20679230  0.71439586  0.91303325     0.09100
H2821       H  0.18669120  0.70964057  0.88231732     0.09100
H2822       H  0.09668550  0.64937714  0.44322939     0.09100
H2823       H  0.09950153  0.65662550  0.98115110     0.09100
H2824       H  0.10674395  0.66682215  0.40920000     0.05800
C2825       C  0.13235661  0.56508255  0.57981274    -0.20000
C2826       C  0.13419662  0.58592811  0.57321242    -0.06500
C2827       C  0.13695475  0.60075051  0.59816675     0.14300
C2828       C  0.13592388  0.59349832  0.62894981    -0.20000
C2829       C  0.13159809  0.57164363  0.63542286    -0.06500
C2830       C  0.13076486  0.55761511  0.61052925     0.14300
C2831       C  0.12811684  0.53470207  0.61601830    -0.23400
H2832       H  0.13065410  0.55386233  0.56081027     0.15600
H2833       H  0.13713841  0.60444633  0.64804560     0.15600
C2834       C  0.14079325  0.62413381  0.59271352    -0.23300
H2835       H  0.12966425  0.52700193  0.59406506     0.05900
H2836       H  0.11112052  0.52269220  0.62591286     0.09100
H2837       H  0.14153210  0.53657123  0.63215690     0.09100
H2838       H  0.12537544  0.62284474  0.58264179     0.09100
H2839       H  0.15544670  0.63378745  0.57677598     0.09100
H2840       H  0.14458116  0.63399826  0.61472416     0.05800
C2841       C  0.13283415  0.59499525  0.86457590    -0.20000
C2842       C  0.12989750  0.57921515  0.88745786    -0.06500
C2843       C  0.13039954  0.55965958  0.87869611     0.14300
C2844       C  0.13209303  0.55557692  0.84701016    -0.20000
C2845       C  0.13346648  0.57060828  0.82379754    -0.06500
C2846       C  0.13484589  0.59112638  0.83294445     0.14300
C2847       C  0.13735940  0.60861786  0.80970876    -0.23400
H2848       H  0.13292654  0.61022855  0.87146921     0.15600
H2849       H  0.13137694  0.54001581  0.84025662     0.15600
C2850       C  0.12783734  0.54239191  0.90232013    -0.23300
H2851       H  0.13829520  0.62358740  0.82122602     0.05900
H2852       H  0.12253198  0.60107339  0.79378452     0.09100
H2853       H  0.15327087  0.61485750  0.79618451     0.09100
H2854       H  0.11155210  0.53570433  0.91508081     0.09100
H2855       H  0.14219668  0.55041269  0.91900436     0.09100
H2856       H  0.12784012  0.52775866  0.89123607     0.05800
C2857       C  0.87420725  0.36838105  0.55412391    -0.20000
C2858       C  0.89581178  0.37898761  0.54024799    -0.06500
C2859       C  0.90624915  0.36609990  0.53519439     0.14300
C2860       C  0.89433504  0.34284994  0.54266087    -0.20000
C2861       C  0.87242239  0.33207902  0.55557528    -0.06500
C2862       C  0.86249655  0.34528117  0.56222754     0.14300
C2863       C  0.83987163  0.33552894  0.57849894    -0.23400
H2864       H  0.86642187  0.37831944  0.55892779     0.15600
H2865       H  0.90211720  0.33291560  0.53784634     0.15600
C2866       C  0.92969014  0.37641981  0.52136996    -0.23300
H2867       H  0.83579988  0.34883087  0.58396488     0.05900
H2868       H  0.84019670  0.32765466  0.60080894     0.09100
H2869       H  0.82604223  0.32269387  0.56343776     0.09100
H2870       H  0.94236151  0.38979387  0.53716093     0.09100
H2871       H  0.92879639  0.38268610  0.99352973     0.09100
H2872       H  0.93470142  0.36358233  0.51803633     0.05800
C2873       C  0.91049594  0.45088422  0.63639212    -0.20000
C2874       C  0.91156497  0.46561489  0.61303801    -0.06500
C2875       C  0.91039872  0.48486178  0.62158394     0.14300
C2876       C  0.91006822  0.48979470  0.65332152    -0.20000
C2877       C  0.91077883  0.47595806  0.67672784    -0.06500
C2878       C  0.91009287  0.45573344  0.66805085     0.14300
C2879       C  0.91043997  0.43988040  0.69179107    -0.23400
H2880       H  0.91093549  0.43587908  0.62982563     0.15600
H2881       H  0.91031193  0.50515037  0.65991217     0.15600
C2882       C  0.91089526  0.50099876  0.59763077    -0.23300
H2883       H  0.91030886  0.42518263  0.68068942     0.05900
H2884       H  0.89518622  0.43302172  0.70690452     0.09100
H2885       H  0.92605122  0.44910065  0.70616829     0.09100
H2886       H  0.89588018  0.49186797  0.58217156     0.09100
H2887       H  0.92668794  0.50811677  0.58358400     0.09100
H2888       H  0.91044576  0.51544405  0.60854842     0.05800
C2889       C  0.91040836  0.47955600  0.91928020    -0.20000
C2890       C  0.91118458  0.45989904  0.92513353    -0.06500
C2891       C  0.91160213  0.44700528  0.89949517     0.14300
C2892       C  0.91308930  0.45510044  0.86910541    -0.20000
C2893       C  0.91449102  0.47585511  0.86355002    -0.06500
C2894       C  0.91218517  0.48777515  0.88889167     0.14300
C2895       C  0.91138578  0.50905449  0.88412415    -0.23400
H2896       H  0.90962734  0.48925704  0.93870179     0.15600
H2897       H  0.91429312  0.44568594  0.84962872     0.15600
C2898       C  0.91046629  0.42468611  0.90374782    -0.23300
H2899       H  0.90784745  0.51514005  0.90619550     0.05900
H2900       H  0.89769693  0.50556311  0.86738778     0.09100
H2901       H  0.92792192  0.52296635  0.87518221     0.09100
H2902       H  0.89539404  0.41306050  0.91803412     0.09100
H2903       H  0.92614078  0.42748332  0.91510565     0.09100
H2904       H  0.90893702  0.41609880  0.88113400     0.05800
C2905       C  0.00655333  0.52502432  0.51777459    -0.20000
C2906       C  0.99947432  0.50258746  0.50885816    -0.06500
C2907       C  0.01522342  0.49841477  0.49347802     0.14300
C2908       C  0.03680812  0.51722896  0.98862175    -0.20000
C2909       C  0.04340723  0.53960163  0.99720513    -0.06500
C2910       C  0.02745186  0.54348557  0.01248065     0.14300
C2911       C  0.03319613  0.56688707  0.02282377    -0.23400
H2912       H  0.99469720  0.52840113  0.52966475     0.15600
H2913       H  0.04890777  0.51412081  0.97690154     0.15600
C2914       C  0.00894609  0.47498005  0.48252790    -0.23300
H2915       H  0.02051366  0.56658757  0.53476515     0.05900
H2916       H  0.03728639  0.57807980  0.00230398     0.09100
H2917       H  0.04952356  0.57402490  0.53778433     0.09100
H2918       H  0.99436672  0.46907002  0.96570305     0.09100
H2919       H  0.00413353  0.46336797  0.50270397     0.09100
H2920       H  0.02330697  0.47510021  0.47048771     0.05800
C2921       C  0.36402509  0.47829164  0.96967306    -0.20000
C2922       C  0.37751217  0.50193503  0.96526233    -0.06500
C2923       C  0.36729952  0.51341659  0.95228159     0.14300
C2924       C  0.34403787  0.50117946  0.94531798    -0.20000
C2925       C  0.33026607  0.47773508  0.95096750    -0.06500
C2926       C  0.34058431  0.46605418  0.96293879     0.14300
C2927       C  0.32716833  0.44086511  0.96932520    -0.23400
H2928       H  0.37177063  0.46936022  0.97916784     0.15600
H2929       H  0.33647092  0.51025871  0.93574859     0.15600
C2930       C  0.38151049  0.52977032  0.43199406    -0.23300
H2931       H  0.33806832  0.43471771  0.97852473     0.05900
H2932       H  0.31927709  0.43134713  0.94748793     0.09100
H2933       H  0.31382722  0.43698388  0.98695791     0.09100
H2934       H  0.39611982  0.53112329  0.41897959     0.09100
H2935       H  0.38768775  0.54261164  0.45097895     0.09100
H2936       H  0.37179763  0.53399396  0.41565943     0.05800
C2937       C  0.70192555  0.54029042  0.53204314    -0.20000
C2938       C  0.71295128  0.56245212  0.54420038    -0.06500
C2939       C  0.70056535  0.57354413  0.54770218     0.14300
C2940       C  0.67730193  0.56173091  0.54002621    -0.20000
C2941       C  0.66612411  0.53919752  0.52877784    -0.06500
C2942       C  0.67890077  0.52853744  0.52422160     0.14300
C2943       C  0.66879870  0.50480767  0.51098079    -0.23400
H2944       H  0.71146860  0.53193055  0.52859264     0.15600
H2945       H  0.66771065  0.57003720  0.54340477     0.15600
C2946       C  0.71144808  0.59748625  0.56017251    -0.23300
H2947       H  0.68180851  0.50008216  0.50737075     0.05900
H2948       H  0.65521140  0.49639404  0.05000432     0.09100
H2949       H  0.65598427  0.49214613  0.52726253     0.09100
H2950       H  0.72508819  0.60942956  0.54415392     0.09100
H2951       H  0.71866626  0.59850622  0.58358288     0.09100
H2952       H  0.69901338  0.60309499  0.56237055     0.05800
C2953       C  0.54563097  0.53940347  0.00404270    -0.20000
C2954       C  0.53837345  0.51434205  0.50836328    -0.06500
C2955       C  0.51656005  0.49982098  0.52142344     0.14300
C2956       C  0.49910271  0.50418336  0.51587133    -0.20000
C2957       C  0.50550322  0.52652259  0.99671168    -0.06500
C2958       C  0.52848650  0.54451054  0.00033133     0.14300
C2959       C  0.53544215  0.56925173  0.00058370    -0.23400
H2960       H  0.56307418  0.55323876  0.00659246     0.15600
H2961       H  0.48248853  0.49315033  0.52604961     0.15600
C2962       C  0.51158311  0.48007189  0.54201223    -0.23300
H2963       H  0.55403508  0.58074860  0.00387443     0.05900
H2964       H  0.52689559  0.57256530  0.02006699     0.09100
H2965       H  0.53099189  0.57376269  0.97807860     0.09100
H2966       H  0.52380469  0.48612896  0.56165863     0.09100
H2967       H  0.51276618  0.46696287  0.52841066     0.09100
H2968       H  0.49418958  0.47173854  0.55199810     0.05800
C2969       C  0.52084742  0.36607569  0.78447868    -0.20000
C2970       C  0.50821309  0.37683042  0.78369125    -0.06500
C2971       C  0.48466974  0.36379562  0.79059939     0.14300
C2972       C  0.47469197  0.34067644  0.79832504    -0.20000
C2973       C  0.48738229  0.32996074  0.79911142    -0.06500
C2974       C  0.51090452  0.34299460  0.79186511     0.14300
C2975       C  0.52591122  0.33299740  0.79135066    -0.23400
H2976       H  0.53884950  0.37583271  0.77925842     0.15600
H2977       H  0.45669006  0.33084366  0.80357570     0.15600
C2978       C  0.46972808  0.37379944  0.78956832    -0.23300
H2979       H  0.54372383  0.34580181  0.78498032     0.05900
H2980       H  0.51955260  0.31908784  0.77382191     0.09100
H2981       H  0.52630801  0.32648709  0.81474679     0.09100
H2982       H  0.47032254  0.38057176  0.76598687     0.09100
H2983       H  0.47545852  0.38758808  0.80716204     0.09100
H2984       H  0.45170800  0.36090538  0.79476852     0.05800
C2985       C  0.55843157  0.44414827  0.64841985    -0.20000
C2986       C  0.57326700  0.45885326  0.67158356    -0.06500
C2987       C  0.59369849  0.47870560  0.66243996     0.14300
C2988       C  0.59752997  0.48434041  0.63076069    -0.20000
C2989       C  0.58177380  0.47054786  0.60785393    -0.06500
C2990       C  0.56248219  0.44963563  0.61669339     0.14300
C2991       C  0.54542334  0.43364248  0.59313895    -0.23400
H2992       H  0.54301558  0.42867332  0.65525719     0.15600
H2993       H  0.61264162  0.50009914  0.62388161     0.15600
C2994       C  0.61103799  0.49469804  0.68575945    -0.23300
H2995       H  0.53108624  0.41837139  0.60430511     0.05900
H2996       H  0.55374031  0.42771933  0.57664713     0.09100
H2997       H  0.53829218  0.44243407  0.58018324     0.09100
H2998       H  0.61743195  0.48551905  0.69939828     0.09100
H2999       H  0.60331528  0.50164609  0.70160620     0.09100
H3000       H  0.62588547  0.50932553  0.67430043     0.05800
C3001       C  0.60261073  0.49492697  0.89577418    -0.20000
C3002       C  0.59248123  0.47845687  0.91933439    -0.06500
C3003       C  0.57828646  0.45528695  0.91061076     0.14300
C3004       C  0.57262948  0.44974988  0.87910741    -0.20000
C3005       C  0.58114829  0.46658415  0.85607019    -0.06500
C3006       C  0.59714929  0.48930767  0.86431637     0.14300
C3007       C  0.60731659  0.50798369  0.84041889    -0.23400
H3008       H  0.61404049  0.51260268  0.90206143     0.15600
H3009       H  0.56070011  0.43224060  0.87251321     0.15600
C3010       C  0.56828245  0.43632659  0.93409076    -0.23300
H3011       H  0.61904214  0.52486090  0.85112307     0.05900
H3012       H  0.59363606  0.50900417  0.82841533     0.09100
H3013       H  0.61716052  0.50449848  0.82313061     0.09100
H3014       H  0.55673625  0.43829582  0.95010989     0.09100
H3015       H  0.58212917  0.43651279  0.94746759     0.09100
H3016       H  0.55822105  0.41935774  0.92277557     0.05800
C3017       C  0.56403873  0.67253655  0.70647279    -0.20000
C3018       C  0.54171778  0.66233045  0.71813836    -0.06500
C3019       C  0.53178919  0.67589269  0.72136090     0.14300
C3020       C  0.54415204  0.69872579  0.71244168    -0.20000
C3021       C  0.56628555  0.70890336  0.70055578    -0.06500
C3022       C  0.57651187  0.69564133  0.69781748     0.14300
C3023       C  0.60027956  0.70544399  0.68540141    -0.23400
H3024       H  0.57178349  0.66234312  0.70388059     0.15600
H3025       H  0.53635980  0.70887404  0.71517163     0.15600
C3026       C  0.50821072  0.66685658  0.73427778    -0.23300
H3027       H  0.60512507  0.69238087  0.68375088     0.05900
H3028       H  0.61261818  0.71912306  0.70114338     0.09100
H3029       H  0.60153565  0.71239690  0.66175430     0.09100
H3030       H  0.50701324  0.66015868  0.75808118     0.09100
H3031       H  0.49540119  0.65332962  0.71879055     0.09100
H3032       H  0.50383645  0.68026458  0.73599800     0.05800
C3033       C  0.44969264  0.55642156  0.63780442    -0.20000
C3034       C  0.47084951  0.57609111  0.64344475    -0.06500
C3035       C  0.48320966  0.59038660  0.61820189     0.14300
C3036       C  0.47519736  0.58341599  0.58775690    -0.20000
C3037       C  0.45529837  0.56242358  0.58182562    -0.06500
C3038       C  0.44178669  0.54929224  0.60730288     0.14300
C3039       C  0.41908947  0.52773497  0.60268679    -0.23400
H3040       H  0.43992215  0.54585138  0.65724859     0.15600
H3041       H  0.48530534  0.59382870  0.56839937     0.15600
C3042       C  0.50482383  0.61303885  0.62313198    -0.23300
H3043       H  0.41008696  0.52090960  0.62512322     0.05900
H3044       H  0.42133023  0.51434460  0.59188451     0.09100
H3045       H  0.40814585  0.53120020  0.58770953     0.09100
H3046       H  0.51837869  0.61057740  0.63242546     0.09100
H3047       H  0.50163835  0.62358152  0.63962049     0.09100
H3048       H  0.51123509  0.62264035  0.60105342     0.05800
C3049       C  0.48842305  0.59598618  0.85331933    -0.20000
C3050       C  0.47496694  0.58046046  0.82984504    -0.06500
C3051       C  0.45528106  0.55973742  0.83853506     0.14300
C3052       C  0.45072179  0.55438549  0.87016836    -0.20000
C3053       C  0.46494593  0.56924494  0.89357986    -0.06500
C3054       C  0.48347819  0.59079767  0.88507562     0.14300
C3055       C  0.49865855  0.60794097  0.90915916    -0.23400
H3056       H  0.50331920  0.61204047  0.84677351     0.15600
H3057       H  0.43616486  0.53807541  0.87669656     0.15600
C3058       C  0.43954990  0.54254612  0.81483109    -0.23300
H3059       H  0.51259391  0.62368848  0.89832803     0.05900
H3060       H  0.50644262  0.60059530  0.92388397     0.09100
H3061       H  0.48859112  0.61281454  0.92394786     0.09100
H3062       H  0.44900183  0.53689196  0.80009907     0.09100
H3063       H  0.43207961  0.55019834  0.80009284     0.09100
H3064       H  0.42527835  0.52720019  0.82596130     0.05800
C3065       C  0.50165570  0.51425251  0.74605145    -0.20000
C3066       C  0.51950554  0.53715808  0.74759795    -0.06500
C3067       C  0.54160007  0.54189367  0.75490394     0.14300
C3068       C  0.54510802  0.52378741  0.76008714    -0.20000
C3069       C  0.52731963  0.50088297  0.75823323    -0.06500
C3070       C  0.50517893  0.49613671  0.75125928     0.14300
C3071       C  0.48503130  0.47216161  0.74939208    -0.23400
H3072       H  0.48464251  0.51037385  0.74071352     0.15600
H3073       H  0.56213166  0.52768172  0.76539213     0.15600
C3074       C  0.56173017  0.56585663  0.75738263    -0.23300
H3075       H  0.46900985  0.47178920  0.74461135     0.05900
H3076       H  0.48285994  0.46335670  0.77183647     0.09100
H3077       H  0.48750376  0.46275084  0.73024748     0.09100
H3078       H  0.55875125  0.57523393  0.77606480     0.09100
H3079       H  0.56457623  0.57471918  0.73482921     0.09100
H3080       H  0.57759480  0.56620227  0.76322768     0.05800
C3081       C  0.37272124  0.87622025  0.68447951    -0.20000
C3082       C  0.38230323  0.89590176  0.70311530    -0.06500
C3083       C  0.36860059  0.90475838  0.71222152     0.14300
C3084       C  0.34552553  0.89304152  0.70371915    -0.20000
C3085       C  0.33570705  0.87270866  0.68638349    -0.06500
C3086       C  0.34974869  0.86456224  0.67589728     0.14300
C3087       C  0.34093084  0.84383141  0.65526272    -0.23400
H3088       H  0.38331449  0.86975916  0.67664115     0.15600
H3089       H  0.33489735  0.89944101  0.71158589     0.15600
C3090       C  0.37781219  0.92600655  0.73178491    -0.23300
H3091       H  0.35477073  0.84120047  0.64731147     0.05900
H3092       H  0.33282121  0.84585517  0.63427174     0.09100
H3093       H  0.32850809  0.82833421  0.66812174     0.09100
H3094       H  0.39135509  0.94080248  0.71885313     0.09100
H3095       H  0.38475182  0.92385777  0.75388475     0.09100
H3096       H  0.36444797  0.92986122  0.73772973     0.05800
C3097       C  0.67369495  0.16669083  0.80408346    -0.20000
C3098       C  0.66317382  0.14469284  0.79132669    -0.06500
C3099       C  0.67611252  0.13418418  0.78764385     0.14300
C3100       C  0.69935254  0.14643287  0.79540247    -0.20000
C3101       C  0.71009814  0.16885217  0.80700342    -0.06500
C3102       C  0.69674717  0.17883120  0.81219068     0.14300
C3103       C  0.70628895  0.20219307  0.82638344    -0.23400
H3104       H  0.66372988  0.17457266  0.80783001     0.15600
H3105       H  0.70930011  0.13853472  0.79172186     0.15600
C3106       C  0.66588133  0.11038751  0.77483836    -0.23300
H3107       H  0.69295476  0.20644450  0.83026551     0.05900
H3108       H  0.71912328  0.21533992  0.81061958     0.09100
H3109       H  0.71400690  0.20297975  0.84932698     0.09100
H3110       H  0.65869181  0.10932606  0.75139677     0.09100
H3111       H  0.65234952  0.09807481  0.79067782     0.09100
H3112       H  0.67870336  0.10528257  0.77258618     0.05800
C3113       C  0.51772801  0.03440248  0.76589311    -0.20000
C3114       C  0.54067140  0.04100865  0.76244057    -0.06500
C3115       C  0.54585179  0.02437912  0.75321175     0.14300
C3116       C  0.52806017  0.00223432  0.74606274    -0.20000
C3117       C  0.50511457  0.99590200  0.74822633    -0.06500
C3118       C  0.49995022  0.01216075  0.75930766     0.14300
C3119       C  0.47589384  0.00640399  0.76477772    -0.23400
H3120       H  0.51354276  0.04682943  0.77357390     0.15600
H3121       H  0.53222162  0.98977950  0.73843270     0.15600
C3122       C  0.56992739  0.02954597  0.75075673    -0.23300
H3123       H  0.47525988  0.02105150  0.77457234     0.05900
H3124       H  0.46736422  0.99221521  0.78164492     0.09100
H3125       H  0.46640142  0.00158596  0.74250271     0.09100
H3126       H  0.57862369  0.03578497  0.77351490     0.09100
H3127       H  0.57924824  0.04250034  0.73251917     0.09100
H3128       H  0.57057822  0.01422260  0.74433756     0.05800
C3129       C  0.46589071  0.14278089  0.55027324    -0.20000
C3130       C  0.47800750  0.16656184  0.54644190    -0.06500
C3131       C  0.50068458  0.17745771  0.53524043     0.14300
C3132       C  0.51042367  0.16443745  0.52855795    -0.20000
C3133       C  0.49861970  0.14080199  0.53297332    -0.06500
C3134       C  0.47589876  0.12975930  0.54386531     0.14300
C3135       C  0.46221825  0.10448715  0.54948619    -0.23400
H3136       H  0.44855538  0.13432898  0.55871568     0.15600
H3137       H  0.52772451  0.17302397  0.51995857     0.15600
C3138       C  0.51504745  0.20279763  0.52980789    -0.23300
H3139       H  0.44500645  0.09892172  0.55864878     0.05900
H3140       H  0.47095398  0.09976878  0.56681252     0.09100
H3141       H  0.47777556  0.11811601  0.97876415     0.09100
H3142       H  0.51805558  0.21210875  0.55215387     0.09100
H3143       H  0.50650280  0.20810210  0.51300332     0.09100
H3144       H  0.53199167  0.20794875  0.51999771     0.05800
C3145       C  0.55181035  0.12343645  0.63722548    -0.20000
C3146       C  0.56681612  0.12510391  0.61370929    -0.06500
C3147       C  0.58852082  0.12939984  0.62214205     0.14300
C3148       C  0.59409313  0.13067092  0.65382290    -0.20000
C3149       C  0.57869097  0.12799328  0.67745493    -0.06500
C3150       C  0.55742821  0.12494227  0.66887322     0.14300
C3151       C  0.54004705  0.12220907  0.69266692    -0.23400
H3152       H  0.53527358  0.12043776  0.63077347     0.15600
H3153       H  0.61042997  0.13313506  0.66018128     0.15600
C3154       C  0.60549133  0.13154911  0.59807573    -0.23300
H3155       H  0.52434247  0.11967112  0.68161613     0.05900
H3156       H  0.54713191  0.13774012  0.70739207     0.09100
H3157       H  0.53514472  0.10713555  0.70739027     0.09100
H3158       H  0.61037210  0.14646679  0.58304539     0.09100
H3159       H  0.59802770  0.11585181  0.58362193     0.09100
H3160       H  0.62124507  0.13405193  0.60890098     0.05800
C3161       C  0.55297627  0.13391008  0.90305724    -0.20000
C3162       C  0.56637296  0.13294914  0.92695416    -0.06500
C3163       C  0.58668158  0.13365180  0.91889616     0.14300
C3164       C  0.59193677  0.13332083  0.88742083    -0.20000
C3165       C  0.57756327  0.13230707  0.86361139    -0.06500
C3166       C  0.55839515  0.13373161  0.87146275     0.14300
C3167       C  0.54285512  0.13362068  0.84684049    -0.23400
H3168       H  0.53756804  0.13367190  0.90911313     0.15600
H3169       H  0.60689424  0.13270601  0.88133475     0.15600
C3170       C  0.60216280  0.13308073  0.94307956    -0.23300
H3171       H  0.52841220  0.13430897  0.85715585     0.05900
H3172       H  0.53577714  0.11784784  0.83261590     0.09100
H3173       H  0.55244450  0.14869227  0.83162741     0.09100
H3174       H  0.59278220  0.11727057  0.95699695     0.09100
H3175       H  0.60876629  0.14819966  0.95854148     0.09100
H3176       H  0.61701998  0.13336383  0.93241378     0.05800
C3177       C  0.53528190  0.87949603  0.93750497    -0.20000
C3178       C  0.54620351  0.89992518  0.95457041    -0.06500
C3179       C  0.56913684  0.90917178  0.96341633     0.14300
C3180       C  0.57978503  0.89675343  0.95722077    -0.20000
C3181       C  0.56828070  0.87556210  0.94187733    -0.06500
C3182       C  0.54599896  0.86736169  0.93067148     0.14300
C3183       C  0.53336708  0.84610262  0.91097925    -0.23400
H3184       H  0.51802739  0.87281711  0.92954205     0.15600
H3185       H  0.59702144  0.90338250  0.96518808     0.15600
C3186       C  0.58452838  0.93285969  0.47977951    -0.23300
H3187       H  0.51712779  0.84361292  0.90200195     0.05900
H3188       H  0.52907911  0.83086299  0.92491477     0.09100
H3189       H  0.54390292  0.84733073  0.89059223     0.09100
H3190       H  0.57585718  0.93234598  0.50185240     0.09100
H3191       H  0.58610471  0.94670294  0.46481774     0.09100
H3192       H  0.60197406  0.93697521  0.48552251     0.05800
C3193       C  0.48818591  0.91187737  0.62454748    -0.20000
C3194       C  0.46894021  0.91312543  0.63131965    -0.06500
C3195       C  0.45464695  0.91159260  0.60664799     0.14300
C3196       C  0.46091613  0.91064272  0.57579534    -0.20000
C3197       C  0.48130065  0.91156442  0.56877924    -0.06500
C3198       C  0.49469926  0.91132788  0.59361820     0.14300
C3199       C  0.51587448  0.91050851  0.58791404    -0.23400
H3200       H  0.49880320  0.91248265  0.64350622     0.15600
H3201       H  0.45037518  0.91040515  0.55698770     0.15600
C3202       C  0.43263739  0.91078066  0.61262997    -0.23300
H3203       H  0.52298574  0.90843095  0.60991044     0.05900
H3204       H  0.52923488  0.92656775  0.57710827     0.09100
H3205       H  0.51187838  0.89585793  0.57252899     0.09100
H3206       H  0.43603901  0.92711796  0.62280755     0.09100
H3207       H  0.42185539  0.89663945  0.62878256     0.09100
H3208       H  0.42286681  0.90790412  0.59085564     0.05800
C3209       C  0.48443343  0.91260143  0.82498022    -0.20000
C3210       C  0.46176590  0.90540645  0.81829184    -0.06500
C3211       C  0.44600234  0.89880370  0.84310687     0.14300
C3212       C  0.45374361  0.90135316  0.87397646    -0.20000
C3213       C  0.47687755  0.91076921  0.88061738    -0.06500
C3214       C  0.49226812  0.91556593  0.85570165     0.14300
C3215       C  0.51703124  0.92386598  0.86108109    -0.23400
H3216       H  0.49649324  0.91739590  0.80603330     0.15600
H3217       H  0.44183644  0.89702047  0.89301023     0.15600
C3218       C  0.42104608  0.88898131  0.83727584    -0.23300
H3219       H  0.52595272  0.92484057  0.83903288     0.05900
H3220       H  0.51860037  0.91199983  0.87679076     0.09100
H3221       H  0.52584987  0.94121497  0.87135380     0.09100
H3222       H  0.41452508  0.87405373  0.82145064     0.09100
H3223       H  0.41814242  0.90193865  0.82679283     0.09100
H3224       H  0.41104972  0.88322311  0.85918059     0.05800
C3225       C  0.50531030  0.02508617  0.98502294    -0.20000
C3226       C  0.52694998  0.04183362  0.50374195    -0.06500
C3227       C  0.54313756  0.03567258  0.51105822     0.14300
C3228       C  0.53868977  0.01391850  0.50291732    -0.20000
C3229       C  0.51636226  0.99665369  0.98736492    -0.06500
C3230       C  0.50103595  0.00330468  0.97730828     0.14300
C3231       C  0.48030226  0.98789371  0.95803853    -0.23400
H3232       H  0.49371472  0.03019846  0.97705633     0.15600
H3233       H  0.55100673  0.00923948  0.50882351     0.15600
C3234       C  0.56498715  0.05155483  0.52794811    -0.23300
H3235       H  0.47110427  0.99646811  0.95097840     0.05900
H3236       H  0.46822888  0.97266660  0.97167985     0.09100
H3237       H  0.48538656  0.98266386  0.93650227     0.09100
H3238       H  0.56121895  0.05701306  0.55038415     0.09100
H3239       H  0.57600791  0.06661868  0.51334394     0.09100
H3240       H  0.57479425  0.04328317  0.53322572     0.05800
loop_ 
_geom_bond_atom_site_label_1 
_geom_bond_atom_site_label_2 
_geom_bond_distance 
_geom_bond_site_symmetry_2 
_ccdc_geom_bond_type 
O1            C4   1.271       .  A
O1        Cd1626   2.499   1_554  S
C2           O11   1.264       .  A
C2            O7   1.272       .  A
C2         C1593   1.486       .  S
O3            C9   1.271       .  A
O3           Cd6   2.476       .  S
C4           O12   1.263       .  A
C4         C1577   1.489       .  S
C5           O10   1.270       .  A
C5            O8   1.267       .  A
C5         C1558   1.483       .  S
Cd6          O13   2.425       .  S
Cd6          O11   2.423       .  S
Cd6           O7   2.499       .  S
Cd6          O10   2.486       .  S
Cd6           O8   2.405       .  S
Cd6        O1621   2.493       .  S
Cd6        O1632   2.435       .  S
C9           O13   1.263       .  A
C9         C1609   1.488       .  S
O12       Cd1626   2.431   1_554  S
O14          C17   1.270       .  A
O14         Cd19   2.501       .  S
C15          O24   1.265       .  A
C15          O20   1.269       .  A
C15        C1542   1.486       .  S
O16          C22   1.270       .  A
O16         Cd19   2.493       .  S
C17          O25   1.266       .  A
C17        C1526   1.489       .  S
C18          O23   1.269       .  A
C18          O21   1.266       .  A
C18        C1513   1.478       .  S
Cd19         O26   2.427       .  S
Cd19         O25   2.443       .  S
Cd19         O23   2.486       .  S
Cd19         O21   2.410       .  S
Cd19       O1644   2.457   1_554  S
Cd19       O1640   2.475   1_554  S
O20       Cd1639   2.483       .  S
C22          O26   1.262       .  A
C22        C1606   1.487       .  S
O24       Cd1639   2.448       .  S
O27          C30   1.267       .  A
O27         Cd32   2.484       .  S
C28          O37   1.268       .  A
C28          O33   1.268       .  A
C28        C1478   1.492       .  S
O29          C35   1.269       .  A
O29         Cd32   2.487       .  S
C30          O38   1.265       .  A
C30        C1494   1.495       .  S
C31          O36   1.270       .  A
C31          O34   1.263       .  A
C31        C1545   1.484       .  S
Cd32         O39   2.464       .  S
Cd32         O38   2.450       .  S
Cd32         O37   2.438       .  S
Cd32         O33   2.485       .  S
Cd32         O36   2.522       .  S
Cd32         O34   2.422       .  S
C35          O39   1.266       .  A
C35        C1529   1.492       .  S
O40          C43   1.269       .  A
O40         Cd45   2.476       .  S
C41          O50   1.265       .  A
C41          O46   1.268       .  A
C41        C1497   1.495       .  S
O42          C48   1.270       .  A
O42         Cd45   2.480       .  S
C43          O51   1.267       .  A
C43        C1462   1.489       .  S
C44          O49   1.270       .  A
C44          O47   1.264       .  A
C44        C1574   1.482       .  S
Cd45         O52   2.445       .  S
Cd45         O51   2.433       .  S
Cd45         O50   2.447       .  S
Cd45         O46   2.486       .  S
Cd45         O49   2.497       .  S
Cd45         O47   2.428       .  S
C48          O52   1.264       .  A
C48        C1590   1.486       .  S
O53          C56   1.271       .  A
O53         Cd58   2.508       .  S
C54          O63   1.265       .  A
C54          O59   1.270       .  A
C54        C1430   1.488       .  S
O55          C61   1.269       .  A
O55         Cd58   2.478       .  S
C56          O64   1.264       .  A
C56        C1414   1.482       .  S
C57          O62   1.270       .  A
C57          O60   1.265       .  A
C57        C1398   1.493       .  S
Cd58         O65   2.441       .  S
Cd58         O64   2.426       .  S
Cd58         O63   2.449       .  S
Cd58         O59   2.483       .  S
Cd58         O62   2.491       .  S
Cd58         O60   2.421       .  S
C61          O65   1.265       .  A
C61        C1446   1.491       .  S
O66          C69   1.269       .  A
O66         Cd71   2.479       .  S
C67          O76   1.264       .  A
C67          O72   1.270       .  A
C67        C1385   1.480       .  S
O68          C74   1.268       .  A
O68         Cd71   2.487       .  S
C69          O77   1.265       .  A
C69        C1366   1.485       .  S
C70          O75   1.269       .  A
C70          O73   1.268       .  A
C70        C1350   1.491       .  S
Cd71         O78   2.444       .  S
Cd71         O77   2.429       .  S
Cd71         O76   2.425       .  S
Cd71         O72   2.493       .  S
Cd71         O75   2.460       .  S
Cd71         O73   2.436       .  S
C74          O78   1.264       .  A
C74        C1449   1.493       .  S
O79          C82   1.271       .  A
O79         Cd84   2.479       .  S
C80          O89   1.266       .  A
C80          O85   1.270       .  A
C80        C1382   1.491       .  S
O81          C87   1.272       .  A
O81         Cd84   2.493       .  S
C82          O90   1.265       .  A
C82        C1369   1.481       .  S
C83          O88   1.272       .  A
C83          O86   1.264       .  A
C83        C1321   1.481       .  S
Cd84         O91   2.436       .  S
Cd84         O90   2.411       .  S
Cd84         O88   2.494       .  S
Cd84         O86   2.396       .  S
Cd84       O1709   2.427   1_554  S
Cd84       O1705   2.478   1_554  S
O85       Cd1704   2.483       .  S
C87          O91   1.263       .  A
C87        C1334   1.496       .  S
O89       Cd1704   2.437       .  S
O92          C95   1.272       .  A
O92       Cd1717   2.482   1_554  S
C93         O102   1.266       .  A
C93          O98   1.271       .  A
C93        C1433   1.482       .  S
O94         C100   1.272       .  A
O94         Cd97   2.482       .  S
C95         O103   1.265       .  A
C95        C1417   1.492       .  S
C96         O101   1.271       .  A
C96          O99   1.265       .  A
C96        C1302   1.483       .  S
Cd97        O104   2.417       .  S
Cd97        O102   2.419       .  S
Cd97         O98   2.480       .  S
Cd97        O101   2.490       .  S
Cd97         O99   2.405       .  S
Cd97       O1712   2.484       .  S
Cd97       O1723   2.433       .  S
C100        O104   1.263       .  A
C100       C1337   1.484       .  S
O103      Cd1717   2.444   1_554  S
O105        C108   1.267       .  A
O105       Cd110   2.470       .  S
C106        O115   1.264       .  A
C106        O111   1.267       .  A
C106       C1286   1.488       .  S
O107        C113   1.270       .  A
O107      Cd1730   2.501       .  S
C108        O116   1.268       .  A
C108       C1238   1.488       .  S
C109        O114   1.271       .  A
C109        O112   1.264       .  A
C109       C1254   1.484       .  S
Cd110       O116   2.447       .  S
Cd110       O115   2.437       .  S
Cd110       O111   2.472       .  S
Cd110       O114   2.509       .  S
Cd110       O112   2.413       .  S
Cd110      O1727   2.506   1_554  S
Cd110      O1737   2.435   1_554  S
C113        O117   1.263       .  A
C113       C1270   1.490       .  S
O117      Cd1730   2.439       .  S
O118        C121   1.266       .  A
O118       Cd123   2.469       .  S
C119        O128   1.268       .  A
C119        O124   1.268       .  A
C119       C1190   1.483       .  S
O120        C126   1.269       .  A
O120      Cd1743   2.486   1_554  S
C121        O129   1.265       .  A
C121       C1289   1.490       .  S
C122        O127   1.269       .  A
C122        O125   1.263       .  A
C122       C1222   1.483       .  S
Cd123       O129   2.464       .  S
Cd123       O128   2.436       .  S
Cd123       O124   2.467       .  S
Cd123       O127   2.507       .  S
Cd123       O125   2.426       .  S
Cd123      O1740   2.486       .  S
Cd123      O1750   2.428       .  S
C126        O130   1.263       .  A
C126       C1206   1.483       .  S
O130      Cd1743   2.431   1_554  S
O131        C134   1.271       .  A
O131       Cd136   2.497       .  S
C132        O141   1.265       .  A
C132        O137   1.270       .  A
C132       C1225   1.487       .  S
O133        C139   1.271       .  A
O133       Cd136   2.483       .  S
C134        O142   1.264       .  A
C134       C1209   1.483       .  S
C135        O140   1.270       .  A
C135        O138   1.267       .  A
C135       C1158   1.487       .  S
Cd136       O143   2.435       .  S
Cd136       O142   2.429       .  S
Cd136       O141   2.432       .  S
Cd136       O137   2.481       .  S
Cd136       O140   2.478       .  S
Cd136       O138   2.411       .  S
C139        O143   1.263       .  A
C139       C1174   1.494       .  S
O144        C147   1.270       .  A
O144       Cd149   2.474       .  S
C145        O154   1.264       .  A
C145        O150   1.270       .  A
C145       C1273   1.485       .  S
O146        C152   1.271       .  A
O146       Cd149   2.479       .  S
C147        O155   1.265       .  A
C147       C1257   1.485       .  S
C148        O153   1.270       .  A
C148        O151   1.266       .  A
C148       C1142   1.485       .  S
Cd149       O156   2.444       .  S
Cd149       O155   2.433       .  S
Cd149       O154   2.437       .  S
Cd149       O150   2.494       .  S
Cd149       O153   2.482       .  S
Cd149       O151   2.410       .  S
C152        O156   1.263       .  A
C152       C1177   1.494   1_655  S
O157        C160   1.271       .  A
O157       Cd162   2.502       .  S
C158        O167   1.265       .  A
C158        O163   1.269       .  A
C158       C1094   1.484       .  S
O159        C165   1.269       .  A
O159       Cd162   2.487       .  S
C160        O168   1.263       .  A
C160       C1113   1.483       .  S
C161        O166   1.271       .  A
C161        O164   1.265       .  A
C161       C1465   1.487       .  S
Cd162       O169   2.431       .  S
Cd162       O168   2.410       .  S
Cd162       O167   2.433       .  S
Cd162       O163   2.471       .  S
Cd162       O166   2.470       .  S
Cd162       O164   2.417       .  S
C165        O169   1.265       .  A
C165       C1129   1.492       .  S
O170        C173   1.269       .  A
O170       Cd175   2.477       .  S
C171        O180   1.264       .  A
C171        O176   1.270       .  A
C171       C1062   1.484       .  S
O172        C178   1.267       .  A
O172       Cd175   2.460       .  S
C173        O181   1.265       .  A
C173       C1078   1.490       .  S
C174        O179   1.270       .  A
C174        O177   1.265       .  A
C174       C1046   1.480       .  S
Cd175       O182   2.461       .  S
Cd175       O181   2.432       .  S
Cd175       O180   2.418       .  S
Cd175       O176   2.507       .  S
Cd175       O179   2.483       .  S
Cd175       O177   2.406       .  S
C178        O182   1.265       .  A
C178       C1126   1.493       .  S
O183        C186   1.271       .  A
O183       Cd188   2.476       .  S
C184        O193   1.265       .  A
C184        O189   1.272       .  A
C184       C2717   1.485       .  S
O185        C191   1.270       .  A
O185       Cd188   2.470       .  S
C186        O194   1.264       .  A
C186       C1110   1.487       .  S
C187        O192   1.271       .  A
C187        O190   1.265       .  A
C187       C1193   1.475       .  S
Cd188       O195   2.438       .  S
Cd188       O194   2.444       .  S
Cd188       O193   2.418       .  S
Cd188       O189   2.498       .  S
Cd188       O192   2.479       .  S
Cd188       O190   2.400       .  S
C191        O195   1.264       .  A
C191       C1030   1.483       .  S
O196        C199   1.270       .  A
O196       Cd201   2.494       .  S
C197        O206   1.265       .  A
C197        O202   1.269       .  A
C197       C1065   1.479       .  S
O198        C204   1.269       .  A
O198       Cd201   2.482       .  S
C199        O207   1.264       .  A
C199       C1081   1.480       .  S
C200        O205   1.270       .  A
C200        O203   1.267       .  A
C200       C1014   1.486       .  S
Cd201       O208   2.438       .  S
Cd201       O207   2.417       .  S
Cd201       O206   2.443       .  S
Cd201       O202   2.462       .  S
Cd201       O205   2.465       .  S
Cd201       O203   2.412       .  S
C204        O208   1.262       .  A
C204       C1033   1.487       .  S
O209        C212   1.271       .  A
O209       Cd214   2.513       .  S
C210        O219   1.263       .  A
C210        O215   1.271       .  A
C210        C966   1.494       .  S
O211        C217   1.271       .  A
O211       Cd214   2.483       .  S
C212        O220   1.265       .  A
C212        C982   1.487       .  S
C213        O218   1.269       .  A
C213        O216   1.265       .  A
C213        C950   1.483       .  S
Cd214       O221   2.421       .  S
Cd214       O220   2.419       .  S
Cd214       O219   2.440       .  S
Cd214       O215   2.504       .  S
Cd214       O218   2.502       .  S
Cd214       O216   2.424       .  S
C217        O221   1.264       .  A
C217       C1001   1.485       .  S
O222        C225   1.271       .  A
O222       Cd227   2.482       .  S
C223        O232   1.264       .  A
C223        O228   1.271       .  A
C223        C921   1.476       .  S
O224        C230   1.269       .  A
O224       Cd227   2.467       .  S
C225        O233   1.263       .  A
C225        C934   1.486       .  S
C226        O231   1.270       .  A
C226        O229   1.266       .  A
C226       C1145   1.480       .  S
Cd227       O234   2.437       .  S
Cd227       O233   2.429       .  S
Cd227       O232   2.407       .  S
Cd227       O228   2.488       .  S
Cd227       O231   2.472       .  S
Cd227       O229   2.409       .  S
C230        O234   1.263       .  A
C230        C998   1.486       .  S
O235        C238   1.268       .  A
O235       Cd240   2.470       .  S
C236        O245   1.264       .  A
C236        O241   1.270       .  A
C236        C902   1.490       .  S
O237        C243   1.272       .  A
O237       Cd240   2.508       .  S
C238        O246   1.267       .  A
C238       C1049   1.484   1_655  S
C239        O244   1.272       .  A
C239        O242   1.263       .  A
C239        C985   1.480       .  S
Cd240       O247   2.416       .  S
Cd240       O246   2.413       .  S
Cd240       O245   2.433       .  S
Cd240       O241   2.468       .  S
Cd240       O244   2.507       .  S
Cd240       O242   2.401       .  S
C243        O247   1.263       .  A
C243        C969   1.481       .  S
O248        C251   1.267       .  A
O248       Cd253   2.463       .  S
C249        O258   1.264       .  A
C249        O254   1.267       .  A
C249        C905   1.490       .  S
O250        C256   1.270       .  A
O250       Cd253   2.490       .  S
C251        O259   1.268       .  A
C251       C1318   1.484       .  S
C252        O255   1.264       .  A
C252       O1877   1.271       .  A
C252        C937   1.479       .  S
Cd253       O260   2.420       .  S
Cd253       O259   2.415       .  S
Cd253       O258   2.445       .  S
Cd253       O254   2.460       .  S
Cd253       O257   2.503       .  S
Cd253      O1875   2.414       .  S
O255      Cd1873   2.419       .  S
C256        O260   1.264       .  A
C256        C918   1.487       .  S
O257       C1872   1.270       .  A
O261        C264   1.270       .  A
O261       Cd266   2.509       .  S
C262        O271   1.266       .  A
C262        O267   1.271       .  A
C262        C854   1.485       .  S
O263        C269   1.270       .  A
O263       Cd266   2.466       .  S
C264        O272   1.263       .  A
C264        C870   1.484       .  S
C265        O270   1.269       .  A
C265        O268   1.267       .  A
C265        C953   1.488       .  S
Cd266       O273   2.448       .  S
Cd266       O272   2.424       .  S
Cd266       O271   2.428       .  S
Cd266       O267   2.478       .  S
Cd266       O270   2.489       .  S
Cd266       O268   2.439       .  S
C269        O273   1.263       .  A
C269        C886   1.489       .  S
O274        C277   1.271       .  A
O274       Cd279   2.487       .  S
C275        O284   1.265       .  A
C275        O280   1.270       .  A
C275       C2445   1.486       .  S
O276        C282   1.270       .  A
O276       Cd279   2.482       .  S
C277        O285   1.263       .  A
C277        C838   1.481       .  S
C278        O283   1.270       .  A
C278        O281   1.265       .  A
C278       C1561   1.485       .  S
Cd279       O286   2.421       .  S
Cd279       O285   2.410       .  S
Cd279       O284   2.428       .  S
Cd279       O280   2.492       .  S
Cd279       O283   2.481       .  S
Cd279       O281   2.408       .  S
C282        O286   1.263       .  A
C282        C889   1.487       .  S
O287        C290   1.269       .  A
O287       Cd292   2.475       .  S
C288        O297   1.263       .  A
C288        O293   1.270       .  A
C288        C806   1.490       .  S
O289        C295   1.269       .  A
O289       Cd292   2.486       .  S
C290        O298   1.267       .  A
C290       C1401   1.491       .  S
C291        O296   1.271       .  A
C291        O294   1.263       .  A
C291        C841   1.477       .  S
Cd292       O299   2.448       .  S
Cd292       O298   2.409       .  S
Cd292       O297   2.430       .  S
Cd292       O293   2.470       .  S
Cd292       O296   2.487       .  S
Cd292       O294   2.412       .  S
C295        O299   1.265       .  A
C295        C822   1.488       .  S
O300        C303   1.269       .  A
O300       Cd305   2.474       .  S
C301        O310   1.262       .  A
C301        O306   1.269       .  A
C301        C809   1.490       .  S
O302        C308   1.270       .  A
O302       Cd305   2.496       .  S
C303        O311   1.268       .  A
C303        C793   1.488       .  S
C304        O309   1.270       .  A
C304        O307   1.264       .  A
C304        C873   1.487       .  S
Cd305       O312   2.429       .  S
Cd305       O311   2.429       .  S
Cd305       O310   2.434       .  S
Cd305       O306   2.478       .  S
Cd305       O309   2.487       .  S
Cd305       O307   2.445       .  S
C308        O312   1.264       .  A
C308        C857   1.482       .  S
O313       C1936   1.271       .  A
O313       Cd318   2.489       .  S
C314        O323   1.264       .  A
C314        O319   1.271       .  A
C314        C745   1.489       .  S
O315        C321   1.270       .  A
O315       Cd318   2.470       .  S
C316       O1933   1.271       .  A
C316       O1944   1.264       .  A
C316        C761   1.480       .  S
C317        O322   1.270       .  A
C317        O320   1.265       .  A
C317       C1510   1.475       .  S
Cd318       O325   2.430       .  S
Cd318       O324   2.417       .  S
Cd318       O323   2.439       .  S
Cd318       O319   2.488       .  S
Cd318       O322   2.478       .  S
Cd318       O320   2.395       .  S
C321        O325   1.263       .  A
C321        C774   1.484       .  S
O324       C1936   1.263       .  A
O326        C329   1.270       .  A
O326       Cd331   2.477       .  S
C327        O336   1.264       .  A
C327        O332   1.271       .  A
C327        C710   1.487       .  S
O328        C334   1.271       .  A
O328       Cd331   2.484       .  S
C329        O337   1.265       .  A
C329        C726   1.478       .  S
C330        O335   1.270       .  A
C330        O333   1.266       .  A
C330        C694   1.485       .  S
Cd331       O338   2.410       .  S
Cd331       O337   2.433       .  S
Cd331       O336   2.427       .  S
Cd331       O332   2.504       .  S
Cd331       O335   2.485       .  S
Cd331       O333   2.401       .  S
C334        O338   1.262       .  A
C334        C777   1.487       .  S
O339        C342   1.270       .  A
O339       Cd344   2.476       .  S
C340        O349   1.264       .  A
C340        O345   1.268       .  A
C340        C678   1.488       .  S
O341        C347   1.270       .  A
O341       Cd344   2.495       .  S
C342        O350   1.266       .  A
C342       C1017   1.483       .  S
C343        O348   1.272       .  A
C343        O346   1.266       .  A
C343        C729   1.490       .  S
Cd344       O351   2.451       .  S
Cd344       O350   2.428       .  S
Cd344       O349   2.428       .  S
Cd344       O345   2.477       .  S
Cd344       O348   2.502       .  S
Cd344       O346   2.423       .  S
C347        O351   1.263       .  A
C347        C713   1.493       .  S
O352        C355   1.269       .  A
O352       Cd357   2.472       .  S
C353        O362   1.266       .  A
C353        O358   1.271       .  A
C353       C1353   1.487       .  S
O354        C360   1.271       .  A
O354       Cd357   2.483       .  S
C355        O363   1.265       .  A
C355        C681   1.485       .  S
C356        O361   1.272       .  A
C356        O359   1.263       .  A
C356        C742   1.483       .  S
Cd357       O364   2.431       .  S
Cd357       O363   2.432       .  S
Cd357       O362   2.421       .  S
Cd357       O358   2.462       .  S
Cd357       O361   2.500       .  S
Cd357       O359   2.415       .  S
C360        O364   1.264       .  A
C360        C758   1.485       .  S
O365        C368   1.269       .  A
O365       Cd370   2.492       .  S
C366        O375   1.265       .  A
C366        O371   1.270       .  A
C366        C646   1.479       .  S
O367        C373   1.271       .  A
O367       Cd370   2.493       .  S
C368        O376   1.265       .  A
C368        C633   1.482       .  S
C369        O374   1.271       .  A
C369        O372   1.262       .  A
C369        C662   1.490       .  S
Cd370       O377   2.409       .  S
Cd370       O376   2.415       .  S
Cd370       O375   2.417       .  S
Cd370       O371   2.472       .  S
Cd370       O374   2.491       .  S
Cd370       O372   2.426       .  S
C373        O377   1.264       .  A
C373       C1481   1.494       .  S
O378        C381   1.271       .  A
O378       Cd383   2.489       .  S
C379        O388   1.266       .  A
C379        O384   1.269       .  A
C379        C598   1.486       .  S
O380        C386   1.271       .  A
O380       Cd383   2.475       .  S
C381        O389   1.265       .  A
C381        C614   1.477       .  S
C382        O387   1.272       .  A
C382        O385   1.265       .  A
C382        C585   1.488       .  S
Cd383       O390   2.429       .  S
Cd383       O389   2.388       .  S
Cd383       O388   2.430       .  S
Cd383       O384   2.458       .  S
Cd383       O387   2.478       .  S
Cd383       O385   2.415       .  S
C386        O390   1.263       .  A
C386        C665   1.491       .  S
O391       C2014   1.271       .  A
O391       Cd396   2.479       .  S
C392        O401   1.266       .  A
C392        O397   1.270       .  A
C392        C630   1.485       .  S
O393        C399   1.271       .  A
O393       Cd396   2.479       .  S
C394       O2011   1.271       .  A
C394       O2022   1.266       .  A
C394        C649   1.482       .  S
C395        O400   1.272       .  A
C395        O398   1.265       .  A
C395       C1241   1.488       .  S
Cd396       O403   2.429       .  S
Cd396       O402   2.411       .  S
Cd396       O401   2.436       .  S
Cd396       O397   2.463       .  S
Cd396       O400   2.477       .  S
Cd396       O398   2.405       .  S
C399        O403   1.263       .  A
C399        C569   1.487       .  S
O402       C2014   1.265       .  A
O404        C407   1.269       .  A
O404       Cd409   2.452       .  S
C405        O414   1.265       .  A
C405        O410   1.271       .  A
C405        C601   1.474       .  S
O406        C412   1.271       .  A
O406       Cd409   2.482       .  S
C407        O415   1.266       .  A
C407        C617   1.482   1_554  S
C408        O413   1.272       .  A
C408        O411   1.265       .  A
C408        C790   1.482       .  S
Cd409       O416   2.440       .  S
Cd409       O415   2.435       .  S
Cd409       O414   2.397       .  S
Cd409       O410   2.484       .  S
Cd409       O413   2.478       .  S
Cd409       O411   2.404       .  S
C412        O416   1.263       .  A
C412        C566   1.487       .  S
O417        C420   1.271       .  A
O417       Cd422   2.482       .  S
C418        O427   1.265       .  A
C418        O423   1.271       .  A
C418        C521   1.485       .  S
O419        C425   1.271       .  A
O419       Cd422   2.489       .  S
C420        O428   1.267       .  A
C420        C537   1.490       .  S
C421        O426   1.273       .  A
C421        O424   1.264       .  A
C421       C1161   1.489       .  S
Cd422       O429   2.425       .  S
Cd422       O428   2.435       .  S
Cd422       O427   2.432       .  S
Cd422       O423   2.485       .  S
Cd422       O426   2.484       .  S
Cd422       O424   2.395       .  S
C425        O429   1.262       .  A
C425        C553   1.488       .  S
O430        C433   1.270       .  A
O430       Cd435   2.492       .  S
C431        O440   1.264       .  A
C431        O436   1.272       .  A
C431        C489   1.487       .  S
O432        C438   1.271       .  A
O432       Cd435   2.473       .  S
C433        O441   1.266       .  A
C433        C505   1.492       .  S
C434        O439   1.271       .  A
C434        O437   1.266       .  A
C434        C697   1.488       .  S
Cd435       O442   2.424       .  S
Cd435       O441   2.434       .  S
Cd435       O440   2.429       .  S
Cd435       O436   2.479       .  S
Cd435       O439   2.496       .  S
Cd435       O437   2.384       .  S
C438        O442   1.263       .  A
C438        C550   1.486       .  S
O443        C446   1.267       .  A
O443       Cd448   2.472       .  S
C444        O453   1.266       .  A
C444        O449   1.264       .  A
C444        C470   1.490       .  S
O445        C451   1.268       .  A
O445       Cd448   2.500       .  S
C446        O454   1.267       .  A
C446       C1305   1.485       .  S
C447        O452   1.268       .  A
C447        O450   1.264       .  A
C447        C534   1.485       .  S
Cd448       O455   2.431       .  S
Cd448       O454   2.406       .  S
Cd448       O453   2.466       .  S
Cd448       O449   2.450       .  S
Cd448       O452   2.485       .  S
Cd448       O450   2.433       .  S
C451        O455   1.264       .  A
C451       C2138   1.486       .  S
O456        C459   1.268       .  A
O456       Cd461   2.468       .  S
C457        O466   1.264       .  A
C457        O462   1.267       .  A
C457        C473   1.488       .  S
O458        C464   1.270       .  A
O458       Cd461   2.502       .  S
C459        O467   1.269       .  A
C459        C582   1.492       .  S
C460        O465   1.270       .  A
C460        O463   1.264       .  A
C460        C502   1.484       .  S
Cd461       O468   2.435       .  S
Cd461       O467   2.439       .  S
Cd461       O466   2.440       .  S
Cd461       O462   2.474       .  S
Cd461       O465   2.502       .  S
Cd461       O463   2.442       .  S
C464        O468   1.263       .  A
C464        C486   1.485       .  S
C469        C470   1.407       .  A
C469        C474   1.405       .  A
C469        H476   1.084       .  S
C470        C471   1.419       .  A
C471        C472   1.403       .  A
C471        C478   1.509       .  S
C472        C473   1.405       .  A
C472        H477   1.084       .  S
C473        C474   1.417       .  A
C474        C475   1.508       .  S
C475        H479   1.111       .  S
C475        H480   1.111       .  S
C475        H481   1.110       .  S
C478        H482   1.110       .  S
C478        H483   1.110       .  S
C478        H484   1.111       .  S
C485        C486   1.403       .  A
C485       C2110   1.406       .  A
C485        H492   1.084       .  S
C486       C2107   1.417       .  A
C487        C488   1.405       .  A
C487       C2106   1.417   1_554  A
C487        C494   1.507       .  S
C488        C489   1.403       .  A
C488        H493   1.084       .  S
C489        C490   1.420       .  A
C490       C2105   1.406   1_554  A
C490        C491   1.509       .  S
C491        H495   1.111       .  S
C491        H496   1.111       .  S
C491        H497   1.109       .  S
C494        H500   1.111       .  S
C494       H2118   1.110   1_554  S
C494       H2119   1.108   1_554  S
H498       C2114   1.110       .  S
H499       C2114   1.109       .  S
C501        C502   1.405       .  A
C501        C506   1.407       .  A
C501        H508   1.084       .  S
C502        C503   1.412       .  A
C503        C504   1.405       .  A
C503        C510   1.507       .  S
C504        C505   1.408       .  A
C504        H509   1.084       .  S
C505        C506   1.418       .  A
C506        C507   1.507       .  S
C507        H511   1.111       .  S
C507        H512   1.110       .  S
C507        H513   1.110       .  S
C510        H514   1.110       .  S
C510        H515   1.111       .  S
C510        H516   1.111       .  S
C517        C518   1.407       .  A
C517        C522   1.405       .  A
C517        H524   1.084       .  S
C518       C2071   1.489       .  S
C518        C519   1.415       .  A
C519        C520   1.407       .  A
C519        C526   1.506       .  S
C520        C521   1.407       .  A
C520        H525   1.084       .  S
C521        C522   1.414       .  A
C522        C523   1.508       .  S
C523        H527   1.111       .  S
C523        H528   1.110       .  S
C523        H529   1.110       .  S
C526        H530   1.110       .  S
C526        H532   1.111       .  S
C526       H2151   1.110       .  S
H531       C2146   1.110       .  S
C533        C534   1.406       .  A
C533        C538   1.406       .  A
C533        H540   1.084       .  S
C534        C535   1.415       .  A
C535        C536   1.405       .  A
C535        C542   1.508       .  S
C536        C537   1.407       .  A
C536        H541   1.084       .  S
C537        C538   1.416       .  A
C538        C539   1.507       .  S
C539        H543   1.111       .  S
C539        H544   1.110       .  S
C539        H545   1.110       .  S
C542        H546   1.110       .  S
C542        H547   1.110       .  S
C542        H548   1.111       .  S
C549        C550   1.403       .  A
C549        C554   1.404       .  A
C549        H556   1.084       .  S
C550        C551   1.419       .  A
C551        C552   1.405       .  A
C551        C558   1.509       .  S
C552        C553   1.404       .  A
C552        H557   1.084       .  S
C553        C554   1.420       .  A
C554        C555   1.509       .  S
C555        H559   1.111       .  S
C555        H560   1.110       .  S
C555        H561   1.109       .  S
C558        H562   1.110       .  S
C558        H563   1.110       .  S
C558        H564   1.111       .  S
C565        C566   1.403       .  A
C565        C570   1.404       .  A
C565        H572   1.084       .  S
C566        C567   1.419       .  A
C567        C568   1.405       .  A
C567        C574   1.509       .  S
C568        C569   1.403       .  A
C568        H573   1.084       .  S
C569        C570   1.419       .  A
C570        C571   1.509       .  S
C571        H575   1.111       .  S
C571        H576   1.111       .  S
C571        H577   1.109       .  S
C574        H578   1.109       .  S
C574        H579   1.110       .  S
C574        H580   1.111       .  S
C581        C582   1.405       .  A
C581        C586   1.402       .  A
C581        H588   1.084       .  S
C582        C583   1.420       .  A
C583        C584   1.407       .  A
C583        C590   1.507       .  S
C584        C585   1.404   1_455  A
C584        H589   1.084       .  S
C585        C586   1.419   1_655  A
C586        C587   1.510   1_455  S
C587        H591   1.111   1_655  S
C587        H592   1.109       .  S
C587        H593   1.111       .  S
C590        H594   1.110       .  S
C590        H595   1.110       .  S
C590        H596   1.111       .  S
C597        C598   1.409       .  A
C597        C602   1.404       .  A
C597        H604   1.084       .  S
C598        C599   1.418       .  A
C599        C600   1.402       .  A
C599        C606   1.508       .  S
C600        C601   1.402       .  A
C600        H605   1.085       .  S
C601        C602   1.409       .  A
C602        C603   1.507       .  S
C603        H607   1.111       .  S
C603        H608   1.111       .  S
C603        H609   1.110       .  S
C606        H610   1.110       .  S
C606        H611   1.110       .  S
C606        H612   1.111       .  S
C613        C614   1.402       .  A
C613        C618   1.399       .  A
C613        H620   1.085       .  S
C614        C615   1.412       .  A
C615       C2236   1.407       .  A
C615        C622   1.506       .  S
C616        C617   1.409       .  A
C616       C2235   1.407       .  A
C616        H621   1.084       .  S
C617       C2238   1.415       .  A
C618       C2237   1.416       .  A
C618       C2239   1.508       .  S
C619       C2238   1.509   1_554  S
C619        H624   1.110       .  S
C619        H625   1.111       .  S
C619       H2243   1.111       .  S
C622        H626   1.110       .  S
C622        H627   1.110       .  S
C622        H628   1.111       .  S
H623       C2239   1.111       .  S
C629        C630   1.408       .  A
C629        C634   1.406       .  A
C629        H636   1.084       .  S
C630        C631   1.416       .  A
C631        C632   1.402       .  A
C631        C638   1.508       .  S
C632        C633   1.404       .  A
C632        H637   1.084       .  S
C633        C634   1.414       .  A
C634        C635   1.507       .  S
C635        H639   1.111       .  S
C635        H640   1.111       .  S
C635        H641   1.110       .  S
C638        H642   1.111       .  S
C638        H643   1.110       .  S
C638        H644   1.111       .  S
C645        C646   1.406       .  A
C645        C650   1.404       .  A
C645        H652   1.084       .  S
C646        C647   1.413       .  A
C647        C648   1.402       .  A
C647        C654   1.508       .  S
C648        C649   1.406       .  A
C648        H653   1.083       .  S
C649        C650   1.414       .  A
C650        C651   1.507       .  S
C651        H655   1.111       .  S
C651        H656   1.110       .  S
C651        H657   1.111       .  S
C654        H658   1.110       .  S
C654        H659   1.111       .  S
C654        H660   1.111       .  S
C661        C662   1.403       .  A
C661        C666   1.405       .  A
C661        H668   1.083       .  S
C662        C663   1.421       .  A
C663        C664   1.404       .  A
C663        C670   1.509       .  S
C664        C665   1.403       .  A
C664        H669   1.083       .  S
C665        C666   1.422       .  A
C666        C667   1.509       .  S
C667        H671   1.111       .  S
C667        H672   1.110       .  S
C667        H673   1.110       .  S
C670        H674   1.110       .  S
C670        H675   1.110       .  S
C670        H676   1.111       .  S
C677        C678   1.407       .  A
C677        C682   1.403       .  A
C677        H684   1.084       .  S
C678        C679   1.417       .  A
C679        C680   1.404       .  A
C679        C686   1.508       .  S
C680        C681   1.406       .  A
C680        H685   1.084       .  S
C681        C682   1.415       .  A
C682        C683   1.508       .  S
C683        H687   1.111       .  S
C683        H688   1.110       .  S
C683        H689   1.111       .  S
C686        H690   1.110       .  S
C686        H691   1.110       .  S
C686        H692   1.111       .  S
C693        C694   1.407       .  A
C693        C698   1.411       .  A
C693        H700   1.083       .  S
C694        C695   1.417       .  A
C695        C696   1.396       .  A
C695        C702   1.511       .  S
C696        C697   1.404       .  A
C696        H701   1.083       .  S
C697        C698   1.418       .  A
C698        C699   1.507       .  S
C699        H703   1.111       .  S
C699        H704   1.110       .  S
C699        H705   1.110       .  S
C702        H706   1.110       .  S
C702        H707   1.110       .  S
C702        H708   1.111       .  S
C709        C710   1.403       .  A
C709        C714   1.408       .  A
C709        H716   1.084       .  S
C710        C711   1.418       .  A
C711        C712   1.405       .  A
C711        C718   1.509       .  S
C712        C713   1.405       .  A
C712        H717   1.084       .  S
C713        C714   1.421       .  A
C714        C715   1.508       .  S
C715        H719   1.111       .  S
C715        H720   1.110       .  S
C715        H721   1.109       .  S
C718        H722   1.110       .  S
C718        H723   1.109       .  S
C718        H724   1.111       .  S
C725        C730   1.410       .  A
C725       C2346   1.406       .  A
C725        H732   1.083       .  S
C726        C727   1.413   1_554  A
C726       C2345   1.404   1_554  A
C727       C2348   1.402       .  A
C727        C734   1.509   1_556  S
C728        C729   1.407       .  A
C728       C2347   1.403       .  A
C728        H733   1.083       .  S
C729        C730   1.417       .  A
C730        C731   1.506       .  S
C731        H735   1.111       .  S
C731        H736   1.110       .  S
C731        H737   1.110       .  S
C734        H738   1.110       .  S
C734        H739   1.111       .  S
C734        H740   1.111       .  S
C741        C742   1.402       .  A
C741        C746   1.407       .  A
C741        H748   1.084       .  S
C742        C743   1.417       .  A
C743        C744   1.404       .  A
C743        C750   1.509       .  S
C744        C745   1.404       .  A
C744        H749   1.084       .  S
C745        C746   1.420       .  A
C746        C747   1.508       .  S
C747        H751   1.111       .  S
C747        H752   1.110       .  S
C747        H753   1.109       .  S
C750        H754   1.110       .  S
C750        H755   1.109       .  S
C750        H756   1.111       .  S
C757        C758   1.403       .  A
C757        C762   1.403       .  A
C757        H764   1.084       .  S
C758        C759   1.419       .  A
C759        C760   1.406       .  A
C759        C766   1.508       .  S
C760        C761   1.401       .  A
C760        H765   1.084       .  S
C761        C762   1.416       .  A
C762        C763   1.509       .  S
C763        H767   1.111       .  S
C763        H768   1.109       .  S
C763        H769   1.110       .  S
C766        H770   1.109       .  S
C766        H771   1.110       .  S
C766        H772   1.111       .  S
C773        C774   1.402       .  A
C773        C778   1.402       .  A
C773        H780   1.085       .  S
C774        C775   1.418       .  A
C775        C776   1.404       .  A
C775        C782   1.509       .  S
C776        C777   1.404       .  A
C776        H781   1.084       .  S
C777        C778   1.421       .  A
C778        C779   1.509       .  S
C779        H783   1.111       .  S
C779        H784   1.110       .  S
C779        H785   1.110       .  S
C782        H786   1.111       .  S
C782        H787   1.109       .  S
C782        H788   1.111       .  S
C789        C790   1.403       .  A
C789        C794   1.408       .  A
C789        H796   1.084       .  S
C790        C791   1.417       .  A
C791        C792   1.400       .  A
C791        C798   1.510       .  S
C792        C793   1.404   1_545  A
C792        H797   1.084       .  S
C793        C794   1.419   1_565  A
C794        C795   1.507   1_545  S
C795        H799   1.111   1_565  S
C795        H800   1.110       .  S
C795        H801   1.110       .  S
C798        H802   1.111       .  S
C798        H803   1.109       .  S
C798        H804   1.111       .  S
C805        C806   1.404       .  A
C805        C810   1.404       .  A
C805        H812   1.084       .  S
C806        C807   1.421       .  A
C807        C808   1.404       .  A
C807        C814   1.509       .  S
C808        C809   1.404       .  A
C808        H813   1.084       .  S
C809        C810   1.421       .  A
C810        C811   1.509       .  S
C811        H815   1.111       .  S
C811        H816   1.110       .  S
C811        H817   1.110       .  S
C814        H818   1.110       .  S
C814        H819   1.110       .  S
C814        H820   1.111       .  S
C821        C822   1.408       .  A
C821        C826   1.407       .  A
C821        H828   1.084       .  S
C822        C823   1.416       .  A
C823        C824   1.404       .  A
C823        C830   1.508       .  S
C824        C825   1.405       .  A
C824        H829   1.084       .  S
C825       C1895   1.486   1_554  S
C825        C826   1.414       .  A
C826        C827   1.507       .  S
C827        H831   1.111       .  S
C827        H832   1.110   1_554  S
C827        H833   1.110   1_554  S
C830        H834   1.110       .  S
C830        H835   1.110       .  S
C830        H836   1.111       .  S
C837        C838   1.403       .  A
C837        C842   1.404       .  A
C837        H844   1.084       .  S
C838        C839   1.419       .  A
C839        C840   1.404       .  A
C839        C846   1.508       .  S
C840        C841   1.400       .  A
C840        H845   1.084       .  S
C841        C842   1.417       .  A
C842        C843   1.509       .  S
C843        H847   1.111       .  S
C843        H848   1.109       .  S
C843        H849   1.111       .  S
C846        H850   1.109       .  S
C846        H851   1.110       .  S
C846        H852   1.111       .  S
C853        C858   1.406       .  A
C853       C2474   1.407   1_554  A
C853        H860   1.084       .  S
C854        C855   1.416       .  A
C854       C2473   1.407       .  A
C855       C2476   1.404       .  A
C855        C862   1.507       .  S
C856        C857   1.405       .  A
C856       C2475   1.405   1_554  A
C856        H861   1.084       .  S
C857        C858   1.412       .  A
C858        C859   1.507       .  S
C859        H863   1.111       .  S
C859        H864   1.111       .  S
C859        H865   1.110       .  S
C862        H866   1.110       .  S
C862        H867   1.110       .  S
C862        H868   1.111       .  S
C869        C870   1.402       .  A
C869        C874   1.408       .  A
C869        H876   1.084       .  S
C870        C871   1.417       .  A
C871        C872   1.405       .  A
C871        C878   1.509       .  S
C872        C873   1.404       .  A
C872        H877   1.084       .  S
C873        C874   1.418       .  A
C874        C875   1.507       .  S
C875        H879   1.111       .  S
C875        H880   1.109       .  S
C875        H881   1.111       .  S
C878        H882   1.109       .  S
C878        H883   1.111       .  S
C878        H884   1.111       .  S
C885        C886   1.402       .  A
C885        C890   1.402       .  A
C885        H892   1.084       .  S
C886        C887   1.421       .  A
C887        C888   1.406       .  A
C887        C894   1.509       .  S
C888        C889   1.404       .  A
C888        H893   1.084       .  S
C889        C890   1.420       .  A
C890        C891   1.509       .  S
C891        H895   1.111       .  S
C891        H896   1.110       .  S
C891        H897   1.110       .  S
C894        H898   1.110       .  S
C894        H899   1.111       .  S
C894        H900   1.111       .  S
C901        C902   1.405       .  A
C901        C906   1.404       .  A
C901        H908   1.084       .  S
C902        C903   1.420       .  A
C903        C904   1.403       .  A
C903        C910   1.509       .  S
C904        C905   1.405       .  A
C904        H909   1.084       .  S
C905        C906   1.420       .  A
C906        C907   1.509       .  S
C907        H911   1.111       .  S
C907        H912   1.110       .  S
C907        H913   1.110       .  S
C910        H914   1.110       .  S
C910        H915   1.110       .  S
C910        H916   1.111       .  S
C917        C918   1.409       .  A
C917        C922   1.404       .  A
C917        H924   1.084       .  S
C918        C919   1.417       .  A
C919        C920   1.403       .  A
C919        C926   1.507       .  S
C920        C921   1.404       .  A
C920        H925   1.084       .  S
C921        C922   1.410       .  A
C922        C923   1.507       .  S
C923        H927   1.111       .  S
C923        H928   1.111       .  S
C923        H929   1.110       .  S
C926        H930   1.110       .  S
C926        H931   1.110       .  S
C926        H932   1.111       .  S
C933        C934   1.404       .  A
C933        C938   1.403       .  A
C933        H940   1.084       .  S
C934        C935   1.420       .  A
C935        C936   1.407       .  A
C935        C942   1.508       .  S
C936        C937   1.401       .  A
C936        H941   1.084       .  S
C937        C938   1.415       .  A
C938        C939   1.509       .  S
C939        H943   1.111       .  S
C939        H944   1.109       .  S
C939        H945   1.110       .  S
C942        H946   1.109       .  S
C942        H947   1.110       .  S
C942        H948   1.111       .  S
C949        C950   1.405       .  A
C949        C954   1.410       .  A
C949        H956   1.083       .  S
C950        C951   1.415       .  A
C951        C952   1.402       .  A
C951        C958   1.510       .  S
C952        C953   1.404       .  A
C952        H957   1.083       .  S
C953        C954   1.418       .  A
C954        C955   1.506       .  S
C955        H959   1.111       .  S
C955        H960   1.110       .  S
C955        H961   1.110       .  S
C958        H962   1.108       .  S
C958        H963   1.111       .  S
C958        H964   1.111       .  S
C965        C966   1.406       .  A
C965        C970   1.406       .  A
C965        H972   1.084       .  S
C966        C967   1.423       .  A
C967        C968   1.407       .  A
C967        C974   1.508       .  S
C968        C969   1.400       .  A
C968        H973   1.084       .  S
C969        C970   1.415       .  A
C970        C971   1.509       .  S
C971        H975   1.111       .  S
C971        H976   1.111       .  S
C971        H977   1.109       .  S
C974        H978   1.111       .  S
C974        H979   1.109       .  S
C974        H980   1.111       .  S
C981        C982   1.403       .  A
C981        C986   1.399       .  A
C981        H988   1.085       .  S
C982        C983   1.417       .  A
C983        C984   1.412       .  A
C983        C990   1.505       .  S
C984       C2605   1.404       .  A
C984       H2609   1.085       .  S
C985       C2604   1.405   1_554  A
C985       C2606   1.415   1_554  A
C986       C2605   1.417       .  A
C986       C2607   1.511       .  S
C987       C2606   1.512   1_554  S
C987        H991   1.111   1_554  S
C987        H992   1.111       .  S
C987        H993   1.109       .  S
H989       C2604   1.085   1_554  S
C990        H994   1.110       .  S
C990        H995   1.110       .  S
C990        H996   1.111       .  S
C997        C998   1.403       .  A
C997       C1002   1.402       .  A
C997       H1004   1.084       .  S
C998        C999   1.419       .  A
C999       C1000   1.405       .  A
C999       C1006   1.509       .  S
C1000      C1001   1.403       .  A
C1000      H1005   1.084       .  S
C1001      C1002   1.418       .  A
C1002      C1003   1.509       .  S
C1003      H1007   1.111       .  S
C1003      H1008   1.111       .  S
C1003      H1009   1.109       .  S
C1006      H1010   1.110       .  S
C1006      H1011   1.111       .  S
C1006      H1012   1.111       .  S
C1013      C1014   1.404   1_545  A
C1013      C1018   1.400       .  A
C1013      H1020   1.084       .  S
C1014      C1015   1.418   1_565  A
C1015      C1016   1.407       .  A
C1015      C1022   1.507   1_545  S
C1016      C1017   1.404       .  A
C1016      H1021   1.084       .  S
C1017      C1018   1.416       .  A
C1018      C1019   1.509       .  S
C1019      H1023   1.111       .  S
C1019      H1024   1.109       .  S
C1019      H1025   1.111       .  S
C1022      H1026   1.110       .  S
C1022      H1027   1.110       .  S
C1022      H1028   1.111   1_565  S
C1029      C1030   1.402       .  A
C1029      C1034   1.404       .  A
C1029      H1036   1.084       .  S
C1030      C1031   1.417       .  A
C1031      C1032   1.405       .  A
C1031      C1038   1.508       .  S
C1032      C1033   1.405       .  A
C1032      H1037   1.083       .  S
C1033      C1034   1.419       .  A
C1034      C1035   1.509       .  S
C1035      H1039   1.111       .  S
C1035      H1040   1.110       .  S
C1035      H1041   1.109       .  S
C1038      H1042   1.109       .  S
C1038      H1043   1.111       .  S
C1038      H1044   1.111       .  S
C1045      C1046   1.404       .  A
C1045      C1050   1.408       .  A
C1045      H1052   1.085       .  S
C1046      C1047   1.415       .  A
C1047      C1048   1.398       .  A
C1047      C1054   1.510       .  S
C1048      C1049   1.403       .  A
C1048      H1053   1.085       .  S
C1049      C1050   1.418       .  A
C1050      C1051   1.507   1_455  S
C1051      H1055   1.111   1_655  S
C1051      H1056   1.110       .  S
C1051      H1057   1.111       .  S
C1054      H1058   1.111       .  S
C1054      H1059   1.109       .  S
C1054      H1060   1.111       .  S
C1061      C1062   1.405       .  A
C1061      C2686   1.402       .  A
C1061      H1068   1.085       .  S
C1062      C1063   1.414       .  A
C1063      C1064   1.408       .  A
C1063      C1070   1.506       .  S
C1064      C2685   1.407   1_554  A
C1064      H2689   1.085       .  S
C1065      C1066   1.413       .  A
C1065      C2684   1.406       .  A
C1066      C2681   1.400       .  A
C1066      C1067   1.509       .  S
C1067      H1071   1.111       .  S
C1067      H1072   1.111       .  S
C1067      H1073   1.110       .  S
H1069      C2684   1.085       .  S
C1070      H1074   1.110       .  S
C1070      H1075   1.110       .  S
C1070      H1076   1.111       .  S
C1077      C1078   1.409       .  A
C1077      C1082   1.405       .  A
C1077      H1084   1.084       .  S
C1078      C1079   1.418       .  A
C1079      C1080   1.404       .  A
C1079      C1086   1.508       .  S
C1080      C1081   1.404       .  A
C1080      H1085   1.084       .  S
C1081      C1082   1.411       .  A
C1082      C1083   1.507       .  S
C1083      H1087   1.111       .  S
C1083      H1088   1.110       .  S
C1083      H1089   1.111       .  S
C1086      H1090   1.110       .  S
C1086      H1091   1.110       .  S
C1086      H1092   1.111       .  S
C1093      C1094   1.407       .  A
C1093      C1098   1.405       .  A
C1093      H1100   1.083       .  S
C1094      C1095   1.416       .  A
C1095      C1096   1.402       .  A
C1095      C1102   1.508       .  S
C1096      C1097   1.404       .  A
C1096      H1101   1.084       .  S
C1097      C1804   1.480   1_554  S
C1097      C1098   1.413       .  A
C1098      C1099   1.507       .  S
C1099      H1103   1.111       .  S
C1099      H1104   1.111   1_554  S
C1099      H2725   1.110   1_554  S
C1102      H1106   1.111       .  S
C1102      H1107   1.110       .  S
C1102      H1108   1.111       .  S
H1105      C2719   1.110       .  S
C1109      C1110   1.402       .  A
C1109      C1114   1.402       .  A
C1109      H1116   1.084       .  S
C1110      C1111   1.420       .  A
C1111      C1112   1.408       .  A
C1111      C1118   1.508       .  S
C1112      C1113   1.403       .  A
C1112      H1117   1.084       .  S
C1113      C1114   1.417       .  A
C1114      C1115   1.509       .  S
C1115      H1119   1.111       .  S
C1115      H1120   1.109       .  S
C1115      H1121   1.110       .  S
C1118      H1122   1.109       .  S
C1118      H1123   1.110       .  S
C1118      H1124   1.111       .  S
C1125      C1126   1.409       .  A
C1125      C1130   1.407       .  A
C1125      H1132   1.084       .  S
C1126      C1127   1.417       .  A
C1127      C1128   1.403       .  A
C1127      C1134   1.509       .  S
C1128      C1129   1.407       .  A
C1128      H1133   1.084       .  S
C1129      C1130   1.417       .  A
C1130      C1131   1.508       .  S
C1131      H1135   1.111       .  S
C1131      H1136   1.110       .  S
C1131      H1137   1.110       .  S
C1134      H1138   1.110       .  S
C1134      H1139   1.110       .  S
C1134      H1140   1.111       .  S
C1141      C1142   1.404       .  A
C1141      C1146   1.399       .  A
C1141      H1148   1.084       .  S
C1142      C1143   1.417       .  A
C1143      C1144   1.407       .  A
C1143      C1150   1.506       .  S
C1144      C1145   1.404       .  A
C1144      H1149   1.083       .  S
C1145      C1146   1.416       .  A
C1146      C1147   1.510       .  S
C1147      H1151   1.111       .  S
C1147      H1152   1.111       .  S
C1147      H1153   1.109       .  S
C1150      H1154   1.110       .  S
C1150      H1155   1.110       .  S
C1150      H1156   1.111       .  S
C1157      C1158   1.403       .  A
C1157      C1162   1.399       .  A
C1157      H1164   1.084       .  S
C1158      C1159   1.416       .  A
C1159      C1160   1.408       .  A
C1159      C1166   1.507       .  S
C1160      C1161   1.407       .  A
C1160      H1165   1.084       .  S
C1161      C1162   1.420       .  A
C1162      C1163   1.511       .  S
C1163      H1167   1.111       .  S
C1163      H1168   1.110       .  S
C1163      H1169   1.110       .  S
C1166      H1170   1.110       .  S
C1166      H1171   1.110       .  S
C1166      H1172   1.111       .  S
C1173      C1174   1.405       .  A
C1173      C1178   1.406       .  A
C1173      H1180   1.084       .  S
C1174      C1175   1.422       .  A
C1175      C1176   1.405       .  A
C1175      C1182   1.509       .  S
C1176      C1177   1.404       .  A
C1176      H1181   1.084       .  S
C1177      C1178   1.422       .  A
C1178      C1179   1.509   1_455  S
C1179      H1183   1.111       .  S
C1179      H1184   1.110       .  S
C1179      H1185   1.110       .  S
C1182      H1186   1.110       .  S
C1182      H1187   1.110       .  S
C1182      H1188   1.111       .  S
C1189      C1190   1.403       .  A
C1189      C1194   1.400       .  A
C1189      H1196   1.084       .  S
C1190      C1191   1.419       .  A
C1191      C1192   1.407       .  A
C1191      C2818   1.507       .  S
C1192      C1193   1.401       .  A
C1192      H1197   1.084       .  S
C1193      C1194   1.414       .  A
C1194      C1195   1.510       .  S
C1195      H1199   1.111       .  S
C1195      H1200   1.110       .  S
C1195      H1201   1.109       .  S
C1198      C2811   1.506       .  S
C1198      H1202   1.110   1_556  S
C1198      H1204   1.111       .  S
C1198      H2823   1.110       .  S
H1203      C2818   1.111       .  S
C1205      C1206   1.403       .  A
C1205      C1210   1.404       .  A
C1205      H1212   1.084       .  S
C1206      C1207   1.418       .  A
C1207      C1208   1.406       .  A
C1207      C1214   1.508       .  S
C1208      C1209   1.402       .  A
C1208      H1213   1.084       .  S
C1209      C1210   1.417       .  A
C1210      C1211   1.509       .  S
C1211      H1215   1.111       .  S
C1211      H1216   1.109       .  S
C1211      H1217   1.111       .  S
C1214      H1218   1.109       .  S
C1214      H1219   1.110       .  S
C1214      H1220   1.111       .  S
C1221      C1222   1.405       .  A
C1221      C1226   1.404       .  A
C1221      H1228   1.084       .  S
C1222      C1223   1.412       .  A
C1223      C1224   1.407       .  A
C1223      C1230   1.506       .  S
C1224      C1225   1.408       .  A
C1224      H1229   1.083       .  S
C1225      C1226   1.416       .  A
C1226      C1227   1.508       .  S
C1227      H1231   1.111       .  S
C1227      H1232   1.110       .  S
C1227      H1233   1.110       .  S
C1230      H1234   1.110       .  S
C1230      H1235   1.110       .  S
C1230      H1236   1.111       .  S
C1237      C1238   1.404       .  A
C1237      C1242   1.402       .  A
C1237      H1244   1.084       .  S
C1238      C1239   1.417       .  A
C1239      C1240   1.407       .  A
C1239      C1246   1.507       .  S
C1240      C1241   1.406       .  A
C1240      H1245   1.084       .  S
C1241      C1242   1.419       .  A
C1242      C1243   1.510       .  S
C1243      H1247   1.111       .  S
C1243      H1248   1.111       .  S
C1243      H1249   1.109       .  S
C1246      H1250   1.110       .  S
C1246      H1252   1.111       .  S
C1246      H2871   1.110   1_554  S
H1251      C2866   1.110       .  S
C1253      C1254   1.405       .  A
C1253      C1258   1.402       .  A
C1253      H1260   1.084       .  S
C1254      C1255   1.414       .  A
C1255      C1256   1.408       .  A
C1255      C1262   1.506       .  S
C1256      C1257   1.408       .  A
C1256      H1261   1.083       .  S
C1257      C1258   1.414       .  A
C1258      C1259   1.508       .  S
C1259      H1263   1.111       .  S
C1259      H1264   1.110       .  S
C1259      H1265   1.111       .  S
C1262      H1266   1.110       .  S
C1262      H1267   1.110       .  S
C1262      H1268   1.111       .  S
C1269      C1270   1.405       .  A
C1269      C1274   1.406       .  A
C1269      H1276   1.084       .  S
C1270      C1271   1.420       .  A
C1271      C1272   1.406       .  A
C1271      C1278   1.508       .  S
C1272      C1273   1.402       .  A
C1272      H1277   1.084       .  S
C1273      C1274   1.417       .  A
C1274      C1275   1.509       .  S
C1275      H1279   1.111       .  S
C1275      H1280   1.111       .  S
C1275      H1281   1.109       .  S
C1278      H1282   1.110       .  S
C1278      H1283   1.109       .  S
C1278      H1284   1.111       .  S
C1285      C1286   1.406   1_455  A
C1285      C2910   1.403       .  A
C1285      H1292   1.084   1_455  S
C1286      C1287   1.417   1_654  A
C1287      C2908   1.404       .  A
C1287      C1294   1.508       .  S
C1288      C1289   1.406       .  A
C1288      C2907   1.406       .  A
C1288      H1293   1.084       .  S
C1289      C1290   1.417       .  A
C1290      C2905   1.404       .  A
C1290      C1291   1.508       .  S
C1291      H1296   1.110       .  S
C1291      H2915   1.111       .  S
C1291      H2917   1.110       .  S
C1294      H1299   1.110   1_556  S
C1294      H1300   1.111       .  S
C1294      H2918   1.111   1_455  S
H1295      C2911   1.111       .  S
H1297      C2911   1.110       .  S
H1298      C2914   1.110   1_655  S
C1301      C1302   1.405       .  A
C1301      C1306   1.409       .  A
C1301      H1308   1.084       .  S
C1302      C1303   1.417       .  A
C1303      C1304   1.397       .  A
C1303      C2930   1.510       .  S
C1304      C1305   1.402       .  A
C1304      H1309   1.084       .  S
C1305      C1306   1.419       .  A
C1306      C1307   1.507       .  S
C1307      H1311   1.111       .  S
C1307      H1312   1.110       .  S
C1307      H1313   1.110       .  S
C1310      C2923   1.510       .  S
C1310      H1314   1.111       .  S
C1310      H1315   1.110       .  S
C1310      H1316   1.111       .  S
C1317      C1318   1.402       .  A
C1317      C1322   1.398       .  A
C1317      H1324   1.084       .  S
C1318      C1319   1.419       .  A
C1319      C1320   1.408       .  A
C1319      C1326   1.507       .  S
C1320      C1321   1.404       .  A
C1320      H1325   1.084       .  S
C1321      C1322   1.417       .  A
C1322      C1323   1.510       .  S
C1323      H1327   1.111       .  S
C1323      H1329   1.111       .  S
C1323      H2948   1.109       .  S
C1326      H1330   1.110       .  S
C1326      H1331   1.110       .  S
C1326      H1332   1.111       .  S
H1328      C2943   1.110       .  S
C1333      C1338   1.405       .  A
C1333      C2954   1.403       .  A
C1333      H1340   1.084       .  S
C1334      C1335   1.423       .  A
C1334      C2953   1.404       .  A
C1335      C1336   1.407   1_554  A
C1335      C1342   1.509       .  S
C1336      C2957   1.404       .  A
C1336      H1341   1.083       .  S
C1337      C1338   1.419       .  A
C1337      C2956   1.403       .  A
C1338      C1339   1.509       .  S
C1339      H1343   1.111       .  S
C1339      H1344   1.110       .  S
C1339      H1345   1.111       .  S
C1342      H1346   1.110       .  S
C1342      H1347   1.110   1_554  S
C1342      H1348   1.111   1_554  S
C1349      C1350   1.406       .  A
C1349      C1354   1.402       .  A
C1349      H1356   1.083       .  S
C1350      C1351   1.419       .  A
C1351      C1352   1.406       .  A
C1351      C1358   1.507       .  S
C1352      C1353   1.404       .  A
C1352      H1357   1.084       .  S
C1353      C1354   1.418       .  A
C1354      C1355   1.510       .  S
C1355      H1359   1.111       .  S
C1355      H1360   1.110       .  S
C1355      H1361   1.110       .  S
C1358      H1362   1.110       .  S
C1358      H1363   1.110       .  S
C1358      H1364   1.111       .  S
C1365      C1366   1.408       .  A
C1365      C1370   1.405       .  A
C1365      H1372   1.083       .  S
C1366      C1367   1.416       .  A
C1367      C1368   1.403       .  A
C1367      C1374   1.508       .  S
C1368      C1369   1.405       .  A
C1368      H1373   1.084       .  S
C1369      C1370   1.413       .  A
C1370      C1371   1.507       .  S
C1371      H1375   1.111       .  S
C1371      H1376   1.110       .  S
C1371      H1377   1.111       .  S
C1374      H1378   1.110       .  S
C1374      H1379   1.110       .  S
C1374      H1380   1.111       .  S
C1381      C1382   1.409       .  A
C1381      C1386   1.405       .  A
C1381      H1388   1.084       .  S
C1382      C1383   1.418       .  A
C1383      C1384   1.405       .  A
C1383      C1390   1.507       .  S
C1384      C1385   1.404       .  A
C1384      H1389   1.084       .  S
C1385      C1386   1.411       .  A
C1386      C1387   1.507       .  S
C1387      H1391   1.111       .  S
C1387      H1392   1.111       .  S
C1387      H1393   1.110       .  S
C1390      H1394   1.110       .  S
C1390      H1395   1.110       .  S
C1390      H1396   1.111       .  S
C1397      C1398   1.408       .  A
C1397      C1402   1.409       .  A
C1397      H1404   1.084       .  S
C1398      C1399   1.420       .  A
C1399      C1400   1.399       .  A
C1399      C1406   1.510       .  S
C1400      C1401   1.404       .  A
C1400      H1405   1.084       .  S
C1401      C1402   1.419       .  A
C1402      C1403   1.507       .  S
C1403      H1407   1.111       .  S
C1403      H1408   1.110       .  S
C1403      H1409   1.110       .  S
C1406      H1410   1.110       .  S
C1406      H1411   1.110       .  S
C1406      H1412   1.111       .  S
C1413      C1414   1.401       .  A
C1413      C1418   1.408       .  A
C1413      H1420   1.084       .  S
C1414      C1415   1.415       .  A
C1415      C1416   1.405       .  A
C1415      C1422   1.509       .  S
C1416      C1417   1.405       .  A
C1416      H1421   1.084       .  S
C1417      C1418   1.422       .  A
C1418      C1419   1.508       .  S
C1419      H1423   1.111       .  S
C1419      H1424   1.109       .  S
C1419      H1425   1.110       .  S
C1422      H1426   1.109       .  S
C1422      H1427   1.111       .  S
C1422      H1428   1.111       .  S
C1429      C1430   1.408       .  A
C1429      C1434   1.407       .  A
C1429      H1436   1.084       .  S
C1430      C1431   1.417       .  A
C1431      C1432   1.404       .  A
C1431      C1438   1.508       .  S
C1432      C1433   1.404       .  A
C1432      H1437   1.084       .  S
C1433      C1434   1.413       .  A
C1434      C1435   1.507       .  S
C1435      H1439   1.111       .  S
C1435      H1440   1.111       .  S
C1435      H1441   1.110       .  S
C1438      H1442   1.110       .  S
C1438      H1443   1.110       .  S
C1438      H1444   1.111       .  S
C1445      C1446   1.407       .  A
C1445      C1450   1.406       .  A
C1445      H1452   1.084       .  S
C1446      C1447   1.417       .  A
C1447      C1448   1.405       .  A
C1447      C1454   1.508       .  S
C1448      C1449   1.408       .  A
C1448      H1453   1.084       .  S
C1449      C1450   1.417       .  A
C1450      C1451   1.508       .  S
C1451      H1455   1.111       .  S
C1451      H1456   1.110       .  S
C1451      H1457   1.110       .  S
C1454      H1458   1.110       .  S
C1454      H1459   1.110       .  S
C1454      H1460   1.111       .  S
C1461      C1462   1.404       .  A
C1461      C1466   1.401       .  A
C1461      H1468   1.084       .  S
C1462      C1463   1.418       .  A
C1463      C1464   1.407       .  A
C1463      C1470   1.507       .  S
C1464      C1465   1.405       .  A
C1464      H1469   1.084       .  S
C1465      C1466   1.419       .  A
C1466      C1467   1.510       .  S
C1467      H1471   1.111       .  S
C1467      H1472   1.110       .  S
C1467      H1473   1.110       .  S
C1470      H1474   1.110       .  S
C1470      H1475   1.110       .  S
C1470      H1476   1.111       .  S
C1477      C1478   1.403       .  A
C1477      C1482   1.401       .  A
C1477      H1484   1.084       .  S
C1478      C1479   1.418       .  A
C1479      C1480   1.410       .  A
C1479      C1486   1.507       .  S
C1480      C1481   1.408       .  A
C1480      H1485   1.084       .  S
C1481      C1482   1.421       .  A
C1482      C1483   1.510       .  S
C1483      H1487   1.111       .  S
C1483      H1488   1.110       .  S
C1483      H1489   1.110       .  S
C1486      H1490   1.110       .  S
C1486      H1491   1.110       .  S
C1486      H1492   1.111       .  S
C1493      C1494   1.408       .  A
C1493      C1498   1.406       .  A
C1493      H1500   1.083       .  S
C1494      C1495   1.418       .  A
C1495      C1496   1.406       .  A
C1495      C1502   1.508       .  S
C1496      C1497   1.409   1_545  A
C1496      H1501   1.084   1_545  S
C1497      C1498   1.417   1_565  A
C1498      C1499   1.508       .  S
C1499      H1503   1.111       .  S
C1499      H1504   1.110   1_545  S
C1499      H1505   1.110       .  S
C1502      H1506   1.110       .  S
C1502      H1507   1.110       .  S
C1502      H1508   1.111       .  S
C1509      C1510   1.405       .  A
C1509      C1514   1.408       .  A
C1509      H1516   1.084       .  S
C1510      C1511   1.413       .  A
C1511      C1512   1.398       .  A
C1511      C1518   1.510       .  S
C1512      C1513   1.402       .  A
C1512      H1517   1.084       .  S
C1513      C1514   1.414       .  A
C1514      C1515   1.506   1_554  S
C1515      H1519   1.111       .  S
C1515      H1520   1.110   1_556  S
C1515      H3141   1.111       .  S
C1518      H1522   1.111       .  S
C1518      H1523   1.109       .  S
C1518      H1524   1.111       .  S
H1521      C3135   1.110       .  S
C1525      C1526   1.405       .  A
C1525      C1530   1.405       .  A
C1525      H1532   1.084       .  S
C1526      C1527   1.415       .  A
C1527      C1528   1.409       .  A
C1527      C1534   1.506       .  S
C1528      C1529   1.408       .  A
C1528      H1533   1.084       .  S
C1529      C1530   1.417       .  A
C1530      C1531   1.508       .  S
C1531      H1535   1.111       .  S
C1531      H1536   1.110       .  S
C1531      H1537   1.110       .  S
C1534      H1538   1.110       .  S
C1534      H1539   1.110       .  S
C1534      H1540   1.111       .  S
C1541      C1542   1.408       .  A
C1541      C1546   1.408       .  A
C1541      H1548   1.084       .  S
C1542      C1543   1.415       .  A
C1543      C1544   1.404       .  A
C1543      C1550   1.508       .  S
C1544      C1545   1.405       .  A
C1544      H1549   1.084       .  S
C1545      C1546   1.413       .  A
C1546      C1547   1.506       .  S
C1547      H1551   1.111       .  S
C1547      H1552   1.110       .  S
C1547      H1553   1.110       .  S
C1550      H1554   1.110       .  S
C1550      H1555   1.110       .  S
C1550      H1556   1.111       .  S
C1557      C1558   1.403       .  A
C1557      C1562   1.399       .  A
C1557      H1564   1.084       .  S
C1558      C1559   1.415       .  A
C1559      C1560   1.408       .  A
C1559      C3186   1.506       .  S
C1560      C1561   1.407       .  A
C1560      H1565   1.084       .  S
C1561      C1562   1.418       .  A
C1562      C1563   1.510       .  S
C1563      H1567   1.111       .  S
C1563      H1568   1.109       .  S
C1563      H1569   1.111       .  S
C1566      C3179   1.506       .  S
C1566      H1570   1.110   1_556  S
C1566      H1571   1.110       .  S
C1566      H1572   1.111       .  S
C1573      C1574   1.401       .  A
C1573      C1578   1.407       .  A
C1573      H1580   1.084       .  S
C1574      C1575   1.416       .  A
C1575      C1576   1.406       .  A
C1575      C1582   1.509       .  S
C1576      C1577   1.405       .  A
C1576      H1581   1.084       .  S
C1577      C1578   1.420       .  A
C1578      C1579   1.508       .  S
C1579      H1583   1.111       .  S
C1579      H1584   1.109       .  S
C1579      H1585   1.110       .  S
C1582      H1586   1.109       .  S
C1582      H1587   1.111       .  S
C1582      H1588   1.111       .  S
C1589      C1590   1.403       .  A
C1589      C1594   1.403       .  A
C1589      H1596   1.084       .  S
C1590      C1591   1.418       .  A
C1591      C1592   1.408       .  A
C1591      C1598   1.507       .  S
C1592      C1593   1.403       .  A
C1592      H1597   1.084       .  S
C1593      C1594   1.418       .  A
C1594      C1595   1.509       .  S
C1595      H1599   1.111       .  S
C1595      H1600   1.111       .  S
C1595      H1601   1.109       .  S
C1598      H1602   1.110       .  S
C1598      H1603   1.109       .  S
C1598      H1604   1.111       .  S
C1605      C1610   1.404       .  A
C1605      C3226   1.403       .  A
C1605      H1612   1.084       .  S
C1606      C1607   1.418       .  A
C1606      C3225   1.403   1_554  A
C1607      C1608   1.404       .  A
C1607      C1614   1.509       .  S
C1608      C3229   1.404   1_544  A
C1608      H1613   1.084       .  S
C1609      C1610   1.419   1_565  A
C1609      C3228   1.403   1_565  A
C1610      C1611   1.509   1_545  S
C1611      H1615   1.111       .  S
C1611      H1616   1.110       .  S
C1611      H1617   1.110       .  S
C1614      H1618   1.111       .  S
C1614      H1619   1.109       .  S
C1614      H1620   1.111       .  S
O1621      C1624   1.271       .  A
C1622      O1631   1.264       .  A
C1622      O1627   1.273       .  A
C1622      C3213   1.484       .  S
O1623      C1629   1.271       .  A
O1623     Cd1626   2.480       .  S
C1624      O1632   1.264       .  A
C1624      C3197   1.489       .  S
C1625      O1630   1.270       .  A
C1625      O1628   1.267       .  A
C1625      C3178   1.487       .  S
Cd1626     O1633   2.429       .  S
Cd1626     O1631   2.402       .  S
Cd1626     O1627   2.496       .  S
Cd1626     O1630   2.494       .  S
Cd1626     O1628   2.421       .  S
C1629      O1633   1.263       .  A
C1629      C3229   1.490       .  S
O1634      C1637   1.270       .  A
O1634     Cd1639   2.485       .  S
C1635      O1644   1.265       .  A
C1635      O1640   1.269       .  A
C1635      C3162   1.488       .  S
O1636      C1642   1.271       .  A
O1636     Cd1639   2.486       .  S
C1637      O1645   1.266       .  A
C1637      C3146   1.486       .  S
C1638      O1643   1.271       .  A
C1638      O1641   1.266       .  A
C1638      C3133   1.490       .  S
Cd1639     O1646   2.428       .  S
Cd1639     O1645   2.432       .  S
Cd1639     O1643   2.502       .  S
Cd1639     O1641   2.393       .  S
C1642      O1646   1.262       .  A
C1642      C3226   1.489       .  S
O1647      C1650   1.266       .  A
O1647     Cd1652   2.473       .  S
C1648      O1657   1.268       .  A
C1648      O1653   1.267       .  A
C1648      C3098   1.489       .  S
O1649      C1655   1.267       .  A
O1649     Cd1652   2.489       .  S
C1650      O1658   1.264       .  A
C1650      C3114   1.491       .  S
C1651      O1656   1.270       .  A
C1651      O1654   1.264       .  A
C1651      C3165   1.484       .  S
Cd1652     O1659   2.458       .  S
Cd1652     O1658   2.447       .  S
Cd1652     O1657   2.438       .  S
Cd1652     O1653   2.476       .  S
Cd1652     O1656   2.513       .  S
Cd1652     O1654   2.420       .  S
C1655      O1659   1.264       .  A
C1655      C3149   1.491       .  S
O1660      C1663   1.269       .  A
O1660     Cd1665   2.473       .  S
C1661      O1670   1.265       .  A
C1661      O1666   1.267       .  A
C1661      C3117   1.492       .  S
O1662      C1668   1.269       .  A
O1662     Cd1665   2.482       .  S
C1663      O1671   1.268       .  A
C1663      C3082   1.487       .  S
C1664      O1669   1.270       .  A
C1664      O1667   1.264       .  A
C1664      C3194   1.484       .  S
Cd1665     O1672   2.451       .  S
Cd1665     O1671   2.437       .  S
Cd1665     O1670   2.450       .  S
Cd1665     O1666   2.472       .  S
Cd1665     O1669   2.508       .  S
Cd1665     O1667   2.429       .  S
C1668      O1672   1.264       .  A
C1668      C3210   1.484       .  S
O1673      C1676   1.270       .  A
O1673     Cd1678   2.502       .  S
C1674      O1683   1.266       .  A
C1674      O1679   1.269       .  A
C1674      C3050   1.488       .  S
O1675      C1681   1.268       .  A
O1675     Cd1678   2.476       .  S
C1676      O1684   1.263       .  A
C1676      C3034   1.481       .  S
C1677      O1682   1.271       .  A
C1677      O1680   1.264       .  A
C1677      C3018   1.492       .  S
Cd1678     O1685   2.453       .  S
Cd1678     O1684   2.421       .  S
Cd1678     O1683   2.452       .  S
Cd1678     O1679   2.476       .  S
Cd1678     O1682   2.497       .  S
Cd1678     O1680   2.403       .  S
C1681      O1685   1.265       .  A
C1681      C3066   1.496       .  S
O1686      C1689   1.268       .  A
O1686     Cd1691   2.487       .  S
C1687      O1696   1.264       .  A
C1687      O1692   1.269       .  A
C1687      C3005   1.478       .  S
O1688      C1694   1.268       .  A
O1688     Cd1691   2.497       .  S
C1689      O1697   1.264       .  A
C1689      C2986   1.487       .  S
C1690      O1695   1.269       .  A
C1690      O1693   1.268       .  A
C1690      C2970   1.493       .  S
Cd1691     O1698   2.451       .  S
Cd1691     O1697   2.435       .  S
Cd1691     O1696   2.428       .  S
Cd1691     O1692   2.482       .  S
Cd1691     O1695   2.475       .  S
Cd1691     O1693   2.427       .  S
C1694      O1698   1.264       .  A
C1694      C3069   1.496       .  S
O1699      C1702   1.271       .  A
O1699     Cd1704   2.492       .  S
C1700      O1709   1.266       .  A
C1700      O1705   1.269       .  A
C1700      C3002   1.490       .  S
O1701      C1707   1.271       .  A
O1701     Cd1704   2.483       .  S
C1702      O1710   1.266       .  A
C1702      C2989   1.484       .  S
C1703      O1708   1.273       .  A
C1703      O1706   1.263       .  A
C1703      C2941   1.488       .  S
Cd1704     O1711   2.428       .  S
Cd1704     O1710   2.424       .  S
Cd1704     O1708   2.498       .  S
Cd1704     O1706   2.376       .  S
C1707      O1711   1.263       .  A
C1707      C2954   1.485       .  S
O1712      C1715   1.271       .  A
C1713      O1722   1.265       .  A
C1713      O1718   1.272       .  A
C1713      C3053   1.485       .  S
O1714      C1720   1.273       .  A
O1714     Cd1717   2.502       .  S
C1715      O1723   1.264       .  A
C1715      C3037   1.486       .  S
C1716      O1721   1.273       .  A
C1716      O1719   1.265       .  A
C1716      C2922   1.493       .  S
Cd1717     O1724   2.428       .  S
Cd1717     O1722   2.410       .  S
Cd1717     O1718   2.502       .  S
Cd1717     O1721   2.501       .  S
Cd1717     O1719   2.416       .  S
C1720      O1724   1.263       .  A
C1720      C2957   1.497       .  S
O1725      C1728   1.267       .  A
O1725     Cd1730   2.459       .  S
C1726      O1735   1.265       .  A
C1726      O1731   1.267       .  A
C1726      C2906   1.492       .  S
O1727      C1733   1.270       .  A
C1728      O1736   1.268       .  A
C1728      C2858   1.488       .  S
C1729      O1734   1.271       .  A
C1729      O1732   1.264       .  A
C1729      C2874   1.484       .  S
Cd1730     O1736   2.453       .  S
Cd1730     O1735   2.445       .  S
Cd1730     O1731   2.480       .  S
Cd1730     O1734   2.506       .  S
Cd1730     O1732   2.412       .  S
C1733      O1737   1.262       .  A
C1733      C2890   1.489       .  S
O1738      C1741   1.266       .  A
O1738     Cd1743   2.469       .  S
C1739      O1748   1.267       .  A
C1739      O1744   1.268       .  A
C1739      C2810   1.479       .  S
O1740      C1746   1.270       .  A
C1741      O1749   1.264       .  A
C1741      C2909   1.488       .  S
C1742      O1747   1.269       .  A
C1742      O1745   1.265       .  A
C1742      C2842   1.482       .  S
Cd1743     O1749   2.444       .  S
Cd1743     O1748   2.418       .  S
Cd1743     O1744   2.477       .  S
Cd1743     O1747   2.494       .  S
Cd1743     O1745   2.432       .  S
C1746      O1750   1.263       .  A
C1746      C2826   1.484       .  S
O1751      C1754   1.271       .  A
O1751     Cd1756   2.496       .  S
C1752      O1761   1.265       .  A
C1752      O1757   1.270       .  A
C1752      C2845   1.488       .  S
O1753      C1759   1.271       .  A
O1753     Cd1756   2.480       .  S
C1754      O1762   1.264       .  A
C1754      C2829   1.482       .  S
C1755      O1760   1.270       .  A
C1755      O1758   1.267       .  A
C1755      C2778   1.487       .  S
Cd1756     O1763   2.425       .  S
Cd1756     O1762   2.412       .  S
Cd1756     O1761   2.429       .  S
Cd1756     O1757   2.475       .  S
Cd1756     O1760   2.475       .  S
Cd1756     O1758   2.399       .  S
C1759      O1763   1.263       .  A
C1759      C2794   1.492       .  S
O1764      C1767   1.270       .  A
O1764     Cd1769   2.485       .  S
C1765      O1774   1.265       .  A
C1765      O1770   1.270       .  A
C1765      C2893   1.485       .  S
O1766      C1772   1.270       .  A
O1766     Cd1769   2.482       .  S
C1767      O1775   1.264       .  A
C1767      C2877   1.485       .  S
C1768      O1773   1.270       .  A
C1768      O1771   1.267       .  A
C1768      C2762   1.487       .  S
Cd1769     O1776   2.432       .  S
Cd1769     O1775   2.434       .  S
Cd1769     O1774   2.443       .  S
Cd1769     O1770   2.490       .  S
Cd1769     O1773   2.492       .  S
Cd1769     O1771   2.395       .  S
C1772      O1776   1.262       .  A
C1772      C2797   1.492   1_655  S
O1777      C1780   1.271       .  A
O1777     Cd1782   2.501       .  S
C1778      O1787   1.266       .  A
C1778      O1783   1.271       .  A
C1778      C2714   1.487       .  S
O1779      C1785   1.270       .  A
O1779     Cd1782   2.490       .  S
C1780      O1788   1.263       .  A
C1780      C2733   1.484       .  S
C1781      O1786   1.271       .  A
C1781      O1784   1.266       .  A
C1781      C3085   1.487       .  S
Cd1782     O1789   2.429       .  S
Cd1782     O1788   2.417       .  S
Cd1782     O1787   2.435       .  S
Cd1782     O1783   2.483       .  S
Cd1782     O1786   2.478       .  S
Cd1782     O1784   2.428       .  S
C1785      O1789   1.265       .  A
C1785      C2749   1.492       .  S
O1790      C1793   1.269       .  A
O1790     Cd1795   2.472       .  S
C1791      O1800   1.265       .  A
C1791      O1796   1.270       .  A
C1791      C2682   1.484       .  S
O1792      C1798   1.268       .  A
O1792     Cd1795   2.473       .  S
C1793      O1801   1.265       .  A
C1793      C2698   1.487       .  S
C1794      O1799   1.271       .  A
C1794      O1797   1.264       .  A
C1794      C2666   1.483       .  S
Cd1795     O1802   2.443       .  S
Cd1795     O1801   2.419       .  S
Cd1795     O1800   2.403       .  S
Cd1795     O1796   2.494       .  S
Cd1795     O1799   2.484       .  S
Cd1795     O1797   2.399       .  S
C1798      O1802   1.265       .  A
C1798      C2746   1.492       .  S
O1803      C1806   1.270       .  A
O1803     Cd1808   2.473       .  S
C1804      O1813   1.265       .  A
C1804      O1809   1.270       .  A
O1805      C1811   1.270       .  A
O1805     Cd1808   2.477       .  S
C1806      O1814   1.265       .  A
C1806      C2730   1.480       .  S
C1807      O1812   1.270       .  A
C1807      O1810   1.264       .  A
C1807      C2813   1.484       .  S
Cd1808     O1815   2.423       .  S
Cd1808     O1814   2.425       .  S
Cd1808     O1813   2.416       .  S
Cd1808     O1809   2.481       .  S
Cd1808     O1812   2.481       .  S
Cd1808     O1810   2.410       .  S
C1811      O1815   1.262       .  A
C1811      C2650   1.486       .  S
O1816      C1819   1.271       .  A
O1816     Cd1821   2.483       .  S
C1817      O1826   1.265       .  A
C1817      O1822   1.269       .  A
C1817      C2685   1.484       .  S
O1818      C1824   1.270       .  A
O1818     Cd1821   2.473       .  S
C1819      O1827   1.264       .  A
C1819      C2701   1.473       .  S
C1820      O1825   1.270       .  A
C1820      O1823   1.267       .  A
C1820      C2634   1.481       .  S
Cd1821     O1828   2.433       .  S
Cd1821     O1827   2.408       .  S
Cd1821     O1826   2.446       .  S
Cd1821     O1822   2.477       .  S
Cd1821     O1825   2.468       .  S
Cd1821     O1823   2.414       .  S
C1824      O1828   1.263       .  A
C1824      C2653   1.485       .  S
O1829      C1832   1.271       .  A
O1829     Cd1834   2.524       .  S
C1830      O1839   1.263       .  A
C1830      O1835   1.271       .  A
C1830      C2586   1.493       .  S
O1831      C1837   1.271       .  A
O1831     Cd1834   2.486       .  S
C1832      O1840   1.264       .  A
C1832      C2602   1.488       .  S
C1833      O1838   1.269       .  A
C1833      O1836   1.264       .  A
C1833      C2570   1.485       .  S
Cd1834     O1841   2.430       .  S
Cd1834     O1840   2.403       .  S
Cd1834     O1839   2.428       .  S
Cd1834     O1835   2.506       .  S
Cd1834     O1838   2.500       .  S
Cd1834     O1836   2.419       .  S
C1837      O1841   1.264       .  A
C1837      C2621   1.490       .  S
O1842      C1845   1.271       .  A
O1842     Cd1847   2.478       .  S
C1843      O1852   1.264       .  A
C1843      O1848   1.271       .  A
C1843      C2541   1.477       .  S
O1844      C1850   1.270       .  A
O1844     Cd1847   2.470       .  S
C1845      O1853   1.264       .  A
C1845      C2554   1.486       .  S
C1846      O1851   1.270       .  A
C1846      O1849   1.265       .  A
C1846      C2765   1.482       .  S
Cd1847     O1854   2.449       .  S
Cd1847     O1853   2.429       .  S
Cd1847     O1852   2.414       .  S
Cd1847     O1848   2.500       .  S
Cd1847     O1851   2.486       .  S
Cd1847     O1849   2.401       .  S
C1850      O1854   1.264       .  A
C1850      C2618   1.491       .  S
O1855      C1858   1.269       .  A
O1855     Cd1860   2.455       .  S
C1856      O1865   1.264       .  A
C1856      O1861   1.270       .  A
C1856      C2522   1.490       .  S
O1857      C1863   1.272       .  A
O1857     Cd1860   2.504       .  S
C1858      O1866   1.268       .  A
C1858      C2669   1.485       .  S
C1859      O1864   1.273       .  A
C1859      O1862   1.262       .  A
C1859      C2605   1.481       .  S
Cd1860     O1867   2.423       .  S
Cd1860     O1866   2.403       .  S
Cd1860     O1865   2.426       .  S
Cd1860     O1861   2.470       .  S
Cd1860     O1864   2.510       .  S
Cd1860     O1862   2.399       .  S
C1863      O1867   1.264       .  A
C1863      C2589   1.483       .  S
O1868      C1871   1.268       .  A
O1868     Cd1873   2.477       .  S
C1869      O1878   1.263       .  A
C1869      O1874   1.268       .  A
C1869      C2525   1.487       .  S
O1870      C1876   1.269       .  A
O1870     Cd1873   2.490       .  S
C1871      O1879   1.267       .  A
C1871      C2938   1.485       .  S
C1872      O1875   1.263       .  A
C1872      C2557   1.478   1_554  S
Cd1873     O1880   2.435       .  S
Cd1873     O1879   2.409       .  S
Cd1873     O1878   2.439       .  S
Cd1873     O1874   2.463       .  S
Cd1873     O1877   2.503       .  S
C1876      O1880   1.264       .  A
C1876      C2538   1.492       .  S
O1881      C1884   1.271       .  A
O1881     Cd1886   2.508       .  S
C1882      O1891   1.266       .  A
C1882      O1887   1.271       .  A
C1882      C2474   1.485       .  S
O1883      C1889   1.270       .  A
O1883     Cd1886   2.465       .  S
C1884      O1892   1.263       .  A
C1884      C2490   1.488       .  S
C1885      O1890   1.269       .  A
C1885      O1888   1.267       .  A
C1885      C2573   1.490       .  S
Cd1886     O1893   2.437       .  S
Cd1886     O1892   2.432       .  S
Cd1886     O1891   2.431       .  S
Cd1886     O1887   2.485       .  S
Cd1886     O1890   2.493       .  S
Cd1886     O1888   2.421       .  S
C1889      O1893   1.263       .  A
C1889      C2506   1.488       .  S
O1894      C1897   1.271       .  A
O1894     Cd1899   2.480       .  S
C1895      O1904   1.265       .  A
C1895      O1900   1.270       .  A
O1896      C1902   1.271       .  A
O1896     Cd1899   2.489       .  S
C1897      O1905   1.264       .  A
C1897      C2458   1.484       .  S
C1898      O1903   1.271       .  A
C1898      O1901   1.265       .  A
C1898      C3181   1.488       .  S
Cd1899     O1906   2.422       .  S
Cd1899     O1905   2.428       .  S
Cd1899     O1904   2.426       .  S
Cd1899     O1900   2.497       .  S
Cd1899     O1903   2.486       .  S
Cd1899     O1901   2.414       .  S
C1902      O1906   1.262       .  A
C1902      C2509   1.490       .  S
O1907      C1910   1.269       .  A
O1907     Cd1912   2.482       .  S
C1908      O1917   1.262       .  A
C1908      O1913   1.270       .  A
C1908      C2426   1.489       .  S
O1909      C1915   1.269       .  A
O1909     Cd1912   2.489       .  S
C1910      O1918   1.268       .  A
C1910      C3021   1.488       .  S
C1911      O1916   1.271       .  A
C1911      O1914   1.263       .  A
C1911      C2461   1.483       .  S
Cd1912     O1919   2.446       .  S
Cd1912     O1918   2.410       .  S
Cd1912     O1917   2.418       .  S
Cd1912     O1913   2.474       .  S
Cd1912     O1916   2.503       .  S
Cd1912     O1914   2.429       .  S
C1915      O1919   1.265       .  A
C1915      C2442   1.487       .  S
O1920      C1923   1.269       .  A
O1920     Cd1925   2.477       .  S
C1921      O1930   1.262       .  A
C1921      O1926   1.270       .  A
C1921      C2429   1.490       .  S
O1922      C1928   1.270       .  A
O1922     Cd1925   2.497       .  S
C1923      O1931   1.268       .  A
C1923      C2413   1.490       .  S
C1924      O1929   1.270       .  A
C1924      O1927   1.264       .  A
C1924      C2493   1.485       .  S
Cd1925     O1932   2.420       .  S
Cd1925     O1931   2.439       .  S
Cd1925     O1930   2.437       .  S
Cd1925     O1926   2.470       .  S
Cd1925     O1929   2.483       .  S
Cd1925     O1927   2.438       .  S
C1928      O1932   1.264       .  A
C1928      C2477   1.479       .  S
O1933     Cd1938   2.485       .  S
C1934      O1943   1.264       .  A
C1934      O1939   1.270       .  A
C1934      C2365   1.482       .  S
O1935      C1941   1.271       .  A
O1935     Cd1938   2.482       .  S
C1936      C2381   1.480   1_554  S
C1937      O1942   1.272       .  A
C1937      O1940   1.264       .  A
C1937      C3130   1.491       .  S
Cd1938     O1945   2.432       .  S
Cd1938     O1944   2.414       .  S
Cd1938     O1943   2.438       .  S
Cd1938     O1939   2.483       .  S
Cd1938     O1942   2.496       .  S
Cd1938     O1940   2.399       .  S
C1941      O1945   1.263       .  A
C1941      C2394   1.484       .  S
O1946      C1949   1.270       .  A
O1946     Cd1951   2.474       .  S
C1947      O1956   1.264       .  A
C1947      O1952   1.272       .  A
C1947      C2330   1.486       .  S
O1948      C1954   1.272       .  A
O1948     Cd1951   2.486       .  S
C1949      O1957   1.265       .  A
C1949      C2346   1.482       .  S
C1950      O1955   1.272       .  A
C1950      O1953   1.266       .  A
C1950      C2314   1.484       .  S
Cd1951     O1958   2.423       .  S
Cd1951     O1957   2.446       .  S
Cd1951     O1956   2.431       .  S
Cd1951     O1952   2.491       .  S
Cd1951     O1955   2.485       .  S
Cd1951     O1953   2.400       .  S
C1954      O1958   1.263       .  A
C1954      C2397   1.485       .  S
O1959      C1962   1.269       .  A
O1959     Cd1964   2.468       .  S
C1960      O1969   1.265       .  A
C1960      O1965   1.268       .  A
C1960      C2298   1.485       .  S
O1961      C1967   1.270       .  A
O1961     Cd1964   2.484       .  S
C1962      O1970   1.265       .  A
C1962      C2637   1.486       .  S
C1963      O1968   1.270       .  A
C1963      O1966   1.264       .  A
C1963      C2349   1.485       .  S
Cd1964     O1971   2.438       .  S
Cd1964     O1970   2.426       .  S
Cd1964     O1969   2.434       .  S
Cd1964     O1965   2.464       .  S
Cd1964     O1968   2.494       .  S
Cd1964     O1966   2.414       .  S
C1967      O1971   1.264       .  A
C1967      C2333   1.487       .  S
O1972      C1975   1.269       .  A
O1972     Cd1977   2.474       .  S
C1973      O1982   1.265       .  A
C1973      O1978   1.271       .  A
C1973      C2973   1.492       .  S
O1974      C1980   1.272       .  A
O1974     Cd1977   2.494       .  S
C1975      O1983   1.265       .  A
C1975      C2301   1.486       .  S
C1976      O1981   1.272       .  A
C1976      O1979   1.263       .  A
C1976      C2362   1.483       .  S
Cd1977     O1984   2.414       .  S
Cd1977     O1983   2.441       .  S
Cd1977     O1982   2.416       .  S
Cd1977     O1978   2.473       .  S
Cd1977     O1981   2.502       .  S
Cd1977     O1979   2.404       .  S
C1980      O1984   1.262       .  A
C1980      C2378   1.487       .  S
O1985      C1988   1.270       .  A
O1985     Cd1990   2.486       .  S
C1986      O1995   1.265       .  A
C1986      O1991   1.270       .  A
C1986      C2266   1.481       .  S
O1987      C1993   1.272       .  A
O1987     Cd1990   2.491       .  S
C1988      O1996   1.265       .  A
C1988      C2253   1.481       .  S
C1989      O1994   1.272       .  A
C1989      O1992   1.262       .  A
C1989      C2282   1.496       .  S
Cd1990     O1997   2.420       .  S
Cd1990     O1996   2.415       .  S
Cd1990     O1995   2.409       .  S
Cd1990     O1991   2.471       .  S
Cd1990     O1994   2.493       .  S
Cd1990     O1992   2.438       .  S
C1993      O1997   1.265       .  A
C1993      C3101   1.494       .  S
O1998      C2001   1.271       .  A
O1998     Cd2003   2.495       .  S
C1999      O2008   1.266       .  A
C1999      O2004   1.268       .  A
C1999      C2218   1.487       .  S
O2000      C2006   1.271       .  A
O2000     Cd2003   2.495       .  S
C2001      O2009   1.265       .  A
C2001      C2234   1.478       .  S
C2002      O2007   1.271       .  A
C2002      O2005   1.265       .  A
C2002      C2205   1.487       .  S
Cd2003     O2010   2.431       .  S
Cd2003     O2009   2.386       .  S
Cd2003     O2008   2.433       .  S
Cd2003     O2004   2.470       .  S
Cd2003     O2007   2.490       .  S
Cd2003     O2005   2.422       .  S
C2006      O2010   1.262       .  A
C2006      C2285   1.496       .  S
O2011     Cd2016   2.477       .  S
C2012      O2021   1.265       .  A
C2012      O2017   1.270       .  A
C2012      C2250   1.481       .  S
O2013      C2019   1.272       .  A
O2013     Cd2016   2.486       .  S
C2014      C2269   1.480   1_554  S
C2015      O2020   1.272       .  A
C2015      O2018   1.265       .  A
C2015      C2861   1.487       .  S
Cd2016     O2023   2.428       .  S
Cd2016     O2022   2.406       .  S
Cd2016     O2021   2.428       .  S
Cd2016     O2017   2.458       .  S
Cd2016     O2020   2.470       .  S
Cd2016     O2018   2.414       .  S
C2019      O2023   1.264       .  A
C2019      C2189   1.489       .  S
O2024      C2027   1.269       .  A
O2024     Cd2029   2.454       .  S
C2025      O2034   1.265       .  A
C2025      O2030   1.270       .  A
C2025      C2221   1.475       .  S
O2026      C2032   1.271       .  A
O2026     Cd2029   2.487       .  S
C2027      O2035   1.266       .  A
C2027      C2237   1.483       .  S
C2028      O2033   1.273       .  A
C2028      O2031   1.265       .  A
C2028      C2410   1.484       .  S
Cd2029     O2036   2.451       .  S
Cd2029     O2035   2.442       .  S
Cd2029     O2034   2.406       .  S
Cd2029     O2030   2.477       .  S
Cd2029     O2033   2.486       .  S
Cd2029     O2031   2.405       .  S
C2032      O2036   1.263       .  A
C2032      C2186   1.490       .  S
O2037      C2040   1.269       .  A
O2037     Cd2042   2.486       .  S
C2038      O2047   1.264       .  A
C2038      O2043   1.269       .  A
C2038      C2141   1.481       .  S
O2039      C2045   1.270       .  A
O2039     Cd2042   2.502       .  S
C2040      O2048   1.266       .  A
C2040      C2157   1.492       .  S
C2041      O2046   1.272       .  A
C2041      O2044   1.264       .  A
C2041      C2781   1.489       .  S
Cd2042     O2049   2.437       .  S
Cd2042     O2048   2.446       .  S
Cd2042     O2047   2.431       .  S
Cd2042     O2043   2.481       .  S
Cd2042     O2046   2.482       .  S
Cd2042     O2044   2.400       .  S
C2045      O2049   1.262       .  A
C2045      C2173   1.491       .  S
O2050      C2053   1.271       .  A
O2050     Cd2055   2.501       .  S
C2051      O2060   1.264       .  A
C2051      O2056   1.272       .  A
C2051      C2109   1.486       .  S
O2052      C2058   1.270       .  A
O2052     Cd2055   2.480       .  S
C2053      O2061   1.266       .  A
C2053      C2125   1.492       .  S
C2054      O2059   1.270       .  A
C2054      O2057   1.267       .  A
C2054      C2317   1.490       .  S
Cd2055     O2062   2.442       .  S
Cd2055     O2061   2.439       .  S
Cd2055     O2060   2.432       .  S
Cd2055     O2056   2.490       .  S
Cd2055     O2059   2.495       .  S
Cd2055     O2057   2.410       .  S
C2058      O2062   1.263       .  A
C2058      C2170   1.489       .  S
O2063      C2066   1.268       .  A
O2063     Cd2068   2.484       .  S
C2064      O2073   1.265       .  A
C2064      O2069   1.266       .  A
C2064      C2090   1.493       .  S
O2065      C2071   1.270   1_556  A
O2065     Cd2068   2.511       .  S
C2066      O2074   1.268       .  A
C2066      C2925   1.495       .  S
C2067      O2072   1.269       .  A
C2067      O2070   1.264       .  A
C2067      C2154   1.488       .  S
Cd2068     O2075   2.434       .  S
Cd2068     O2074   2.442       .  S
Cd2068     O2073   2.471       .  S
Cd2068     O2069   2.475       .  S
Cd2068     O2072   2.504       .  S
Cd2068     O2070   2.444       .  S
C2071      O2075   1.264   1_554  A
O2076      C2079   1.267       .  A
O2076     Cd2081   2.468       .  S
C2077      O2086   1.264       .  A
C2077      O2082   1.266       .  A
C2077      C2093   1.491       .  S
O2078      C2084   1.270       .  A
O2078     Cd2081   2.505       .  S
C2079      O2087   1.269       .  A
C2079      C2202   1.491       .  S
C2080      O2085   1.270       .  A
C2080      O2083   1.264       .  A
C2080      C2122   1.490       .  S
Cd2081     O2088   2.443       .  S
Cd2081     O2087   2.445       .  S
Cd2081     O2086   2.449       .  S
Cd2081     O2082   2.485       .  S
Cd2081     O2085   2.519       .  S
Cd2081     O2083   2.447       .  S
C2084      O2088   1.263       .  A
C2084      C2106   1.487       .  S
C2089      C2090   1.408       .  A
C2089      C2094   1.407       .  A
C2089      H2096   1.084       .  S
C2090      C2091   1.418       .  A
C2091      C2092   1.404       .  A
C2091      C2098   1.508       .  S
C2092      C2093   1.405       .  A
C2092      H2097   1.084       .  S
C2093      C2094   1.418       .  A
C2094      C2095   1.508       .  S
C2095      H2099   1.111       .  S
C2095      H2100   1.111       .  S
C2095      H2101   1.110       .  S
C2098      H2102   1.110       .  S
C2098      H2103   1.110       .  S
C2098      H2104   1.111       .  S
C2105      C2106   1.404       .  A
C2105      H2112   1.084       .  S
C2107      C2108   1.406       .  A
C2107      C2114   1.508       .  S
C2108      C2109   1.403       .  A
C2108      H2113   1.084       .  S
C2109      C2110   1.419       .  A
C2110      C2111   1.509       .  S
C2111      H2115   1.111       .  S
C2111      H2116   1.110       .  S
C2111      H2117   1.109       .  S
C2114      H2120   1.111       .  S
C2121      C2122   1.407       .  A
C2121      C2126   1.408       .  A
C2121      H2128   1.084       .  S
C2122      C2123   1.414       .  A
C2123      C2124   1.407       .  A
C2123      C2130   1.506       .  S
C2124      C2125   1.408       .  A
C2124      H2129   1.084       .  S
C2125      C2126   1.417       .  A
C2126      C2127   1.507       .  S
C2127      H2131   1.111       .  S
C2127      H2132   1.110       .  S
C2127      H2133   1.110       .  S
C2130      H2134   1.110       .  S
C2130      H2135   1.110       .  S
C2130      H2136   1.111       .  S
C2137      C2138   1.407       .  A
C2137      C2142   1.403       .  A
C2137      H2144   1.084       .  S
C2138      C2139   1.415       .  A
C2139      C2140   1.406       .  A
C2139      C2146   1.507       .  S
C2140      C2141   1.405       .  A
C2140      H2145   1.084       .  S
C2141      C2142   1.413       .  A
C2142      C2143   1.508       .  S
C2143      H2147   1.111       .  S
C2143      H2148   1.111       .  S
C2143      H2149   1.110       .  S
C2146      H2150   1.110       .  S
C2146      H2152   1.111       .  S
C2153      C2154   1.406       .  A
C2153      C2158   1.407       .  A
C2153      H2160   1.084       .  S
C2154      C2155   1.415       .  A
C2155      C2156   1.406       .  A
C2155      C2162   1.507       .  S
C2156      C2157   1.408       .  A
C2156      H2161   1.084       .  S
C2157      C2158   1.417       .  A
C2158      C2159   1.507       .  S
C2159      H2163   1.111       .  S
C2159      H2164   1.110       .  S
C2159      H2165   1.110       .  S
C2162      H2166   1.110       .  S
C2162      H2167   1.110       .  S
C2162      H2168   1.111       .  S
C2169      C2170   1.403       .  A
C2169      C2174   1.405       .  A
C2169      H2176   1.084       .  S
C2170      C2171   1.419       .  A
C2171      C2172   1.407       .  A
C2171      C2178   1.508       .  S
C2172      C2173   1.405       .  A
C2172      H2177   1.084       .  S
C2173      C2174   1.420       .  A
C2174      C2175   1.509       .  S
C2175      H2179   1.111       .  S
C2175      H2180   1.111       .  S
C2175      H2181   1.109       .  S
C2178      H2182   1.110       .  S
C2178      H2183   1.110       .  S
C2178      H2184   1.111       .  S
C2185      C2186   1.403       .  A
C2185      C2190   1.405       .  A
C2185      H2192   1.084       .  S
C2186      C2187   1.420       .  A
C2187      C2188   1.407       .  A
C2187      C2194   1.508       .  S
C2188      C2189   1.404       .  A
C2188      H2193   1.084       .  S
C2189      C2190   1.420       .  A
C2190      C2191   1.509       .  S
C2191      H2195   1.111       .  S
C2191      H2196   1.111       .  S
C2191      H2197   1.109       .  S
C2194      H2198   1.109       .  S
C2194      H2199   1.110       .  S
C2194      H2200   1.111       .  S
C2201      C2202   1.404       .  A
C2201      C2206   1.402       .  A
C2201      H2208   1.084       .  S
C2202      C2203   1.420       .  A
C2203      C2204   1.408       .  A
C2203      C2210   1.507       .  S
C2204      C2205   1.404   1_455  A
C2204      H2209   1.084       .  S
C2205      C2206   1.418   1_655  A
C2206      C2207   1.510   1_455  S
C2207      H2211   1.111   1_655  S
C2207      H2212   1.109       .  S
C2207      H2213   1.111       .  S
C2210      H2214   1.110       .  S
C2210      H2215   1.110       .  S
C2210      H2216   1.111       .  S
C2217      C2218   1.409       .  A
C2217      C2222   1.403       .  A
C2217      H2224   1.084       .  S
C2218      C2219   1.418       .  A
C2219      C2220   1.403       .  A
C2219      C2226   1.508       .  S
C2220      C2221   1.403       .  A
C2220      H2225   1.085       .  S
C2221      C2222   1.409       .  A
C2222      C2223   1.507       .  S
C2223      H2227   1.111       .  S
C2223      H2228   1.111       .  S
C2223      H2229   1.110       .  S
C2226      H2230   1.110       .  S
C2226      H2231   1.110       .  S
C2226      H2232   1.111       .  S
C2233      C2234   1.403       .  A
C2233      C2238   1.399       .  A
C2233      H2240   1.084       .  S
C2234      C2235   1.412       .  A
C2235      C2242   1.506       .  S
C2236      C2237   1.408       .  A
C2236      H2241   1.084       .  S
C2239      H2244   1.110       .  S
C2239      H2245   1.110       .  S
C2242      H2246   1.110       .  S
C2242      H2247   1.110       .  S
C2242      H2248   1.111       .  S
C2249      C2250   1.407       .  A
C2249      C2254   1.406       .  A
C2249      H2256   1.084       .  S
C2250      C2251   1.414       .  A
C2251      C2252   1.402       .  A
C2251      C2258   1.508       .  S
C2252      C2253   1.404       .  A
C2252      H2257   1.084       .  S
C2253      C2254   1.414       .  A
C2254      C2255   1.507       .  S
C2255      H2259   1.111       .  S
C2255      H2260   1.111       .  S
C2255      H2261   1.110       .  S
C2258      H2262   1.111       .  S
C2258      H2263   1.110       .  S
C2258      H2264   1.111       .  S
C2265      C2266   1.406       .  A
C2265      C2270   1.403       .  A
C2265      H2272   1.084       .  S
C2266      C2267   1.415       .  A
C2267      C2268   1.403       .  A
C2267      C2274   1.508       .  S
C2268      C2269   1.406       .  A
C2268      H2273   1.083       .  S
C2269      C2270   1.413       .  A
C2270      C2271   1.507       .  S
C2271      H2275   1.111       .  S
C2271      H2276   1.110   1_556  S
C2271      H2277   1.111   1_556  S
C2274      H2278   1.110       .  S
C2274      H2279   1.111       .  S
C2274      H2280   1.111       .  S
C2281      C2282   1.404       .  A
C2281      C2286   1.406       .  A
C2281      H2288   1.083       .  S
C2282      C2283   1.423       .  A
C2283      C2284   1.407       .  A
C2283      C2290   1.509       .  S
C2284      C2285   1.404       .  A
C2284      H2289   1.083       .  S
C2285      C2286   1.422       .  A
C2286      C2287   1.509       .  S
C2287      H2291   1.111       .  S
C2287      H2292   1.110       .  S
C2287      H2293   1.110       .  S
C2290      H2294   1.110       .  S
C2290      H2295   1.110       .  S
C2290      H2296   1.111       .  S
C2297      C2298   1.406       .  A
C2297      C2302   1.404       .  A
C2297      H2304   1.084       .  S
C2298      C2299   1.416       .  A
C2299      C2300   1.404       .  A
C2299      C2306   1.508       .  S
C2300      C2301   1.406       .  A
C2300      H2305   1.084       .  S
C2301      C2302   1.416       .  A
C2302      C2303   1.508       .  S
C2303      H2307   1.111       .  S
C2303      H2308   1.110       .  S
C2303      H2309   1.110       .  S
C2306      H2310   1.111       .  S
C2306      H2311   1.110       .  S
C2306      H2312   1.111       .  S
C2313      C2314   1.406       .  A
C2313      C2318   1.410       .  A
C2313      H2320   1.083       .  S
C2314      C2315   1.417       .  A
C2315      C2316   1.399       .  A
C2315      C2322   1.511       .  S
C2316      C2317   1.404       .  A
C2316      H2321   1.083       .  S
C2317      C2318   1.419       .  A
C2318      C2319   1.506       .  S
C2319      H2323   1.111       .  S
C2319      H2324   1.110       .  S
C2319      H2325   1.110       .  S
C2322      H2326   1.110       .  S
C2322      H2327   1.109       .  S
C2322      H2328   1.111       .  S
C2329      C2330   1.403       .  A
C2329      C2334   1.406       .  A
C2329      H2336   1.084       .  S
C2330      C2331   1.419       .  A
C2331      C2332   1.405       .  A
C2331      C2338   1.509       .  S
C2332      C2333   1.404       .  A
C2332      H2337   1.084       .  S
C2333      C2334   1.418       .  A
C2334      C2335   1.508       .  S
C2335      H2339   1.111       .  S
C2335      H2340   1.110       .  S
C2335      H2341   1.109       .  S
C2338      H2342   1.110       .  S
C2338      H2343   1.109       .  S
C2338      H2344   1.111       .  S
C2345      C2350   1.407       .  A
C2345      H2352   1.084       .  S
C2346      C2347   1.413       .  A
C2347      C2354   1.509       .  S
C2348      C2349   1.407       .  A
C2348      H2353   1.083       .  S
C2349      C2350   1.415       .  A
C2350      C2351   1.506       .  S
C2351      H2355   1.111       .  S
C2351      H2356   1.110       .  S
C2351      H2357   1.110       .  S
C2354      H2358   1.110       .  S
C2354      H2359   1.111       .  S
C2354      H2360   1.111       .  S
C2361      C2362   1.403       .  A
C2361      C2366   1.407       .  A
C2361      H2368   1.084       .  S
C2362      C2363   1.419       .  A
C2363      C2364   1.403       .  A
C2363      C2370   1.509       .  S
C2364      C2365   1.401       .  A
C2364      H2369   1.084       .  S
C2365      C2366   1.417       .  A
C2366      C2367   1.507       .  S
C2367      H2371   1.111       .  S
C2367      H2372   1.111       .  S
C2367      H2373   1.109       .  S
C2370      H2374   1.111       .  S
C2370      H2375   1.109       .  S
C2370      H2376   1.111       .  S
C2377      C2378   1.404       .  A
C2377      C2382   1.404       .  A
C2377      H2384   1.084       .  S
C2378      C2379   1.421       .  A
C2379      C2380   1.404       .  A
C2379      C2386   1.509       .  S
C2380      C2381   1.400       .  A
C2380      H2385   1.084       .  S
C2381      C2382   1.416       .  A
C2382      C2383   1.509       .  S
C2383      H2387   1.111       .  S
C2383      H2388   1.109       .  S
C2383      H2389   1.111       .  S
C2386      H2390   1.109       .  S
C2386      H2391   1.110       .  S
C2386      H2392   1.111       .  S
C2393      C2394   1.402       .  A
C2393      C2398   1.403       .  A
C2393      H2400   1.085       .  S
C2394      C2395   1.419       .  A
C2395      C2396   1.405       .  A
C2395      C2402   1.508       .  S
C2396      C2397   1.403       .  A
C2396      H2401   1.085       .  S
C2397      C2398   1.419       .  A
C2398      C2399   1.509       .  S
C2399      H2403   1.111       .  S
C2399      H2404   1.109       .  S
C2399      H2405   1.111       .  S
C2402      H2406   1.110       .  S
C2402      H2407   1.109       .  S
C2402      H2408   1.111       .  S
C2409      C2410   1.403       .  A
C2409      C2414   1.408       .  A
C2409      H2416   1.084       .  S
C2410      C2411   1.418       .  A
C2411      C2412   1.401       .  A
C2411      C2418   1.510       .  S
C2412      C2413   1.404   1_545  A
C2412      H2417   1.084       .  S
C2413      C2414   1.420   1_565  A
C2414      C2415   1.507   1_545  S
C2415      H2419   1.111   1_565  S
C2415      H2420   1.110       .  S
C2415      H2421   1.110       .  S
C2418      H2422   1.110       .  S
C2418      H2423   1.109       .  S
C2418      H2424   1.111       .  S
C2425      C2426   1.404       .  A
C2425      C2430   1.404       .  A
C2425      H2432   1.084       .  S
C2426      C2427   1.421       .  A
C2427      C2428   1.402       .  A
C2427      C2434   1.509       .  S
C2428      C2429   1.403       .  A
C2428      H2433   1.084       .  S
C2429      C2430   1.421       .  A
C2430      C2431   1.509       .  S
C2431      H2435   1.111       .  S
C2431      H2436   1.110       .  S
C2431      H2437   1.110       .  S
C2434      H2438   1.110       .  S
C2434      H2439   1.110       .  S
C2434      H2440   1.111       .  S
C2441      C2442   1.407       .  A
C2441      C2446   1.407       .  A
C2441      H2448   1.084       .  S
C2442      C2443   1.416       .  A
C2443      C2444   1.404       .  A
C2443      C2450   1.508       .  S
C2444      C2445   1.405       .  A
C2444      H2449   1.084       .  S
C2445      C2446   1.415       .  A
C2446      C2447   1.507       .  S
C2447      H2451   1.111       .  S
C2447      H2452   1.110       .  S
C2447      H2453   1.110       .  S
C2450      H2454   1.110       .  S
C2450      H2455   1.110       .  S
C2450      H2456   1.111       .  S
C2457      C2458   1.403       .  A
C2457      C2462   1.404       .  A
C2457      H2464   1.084       .  S
C2458      C2459   1.419       .  A
C2459      C2460   1.406       .  A
C2459      C2466   1.508       .  S
C2460      C2461   1.402       .  A
C2460      H2465   1.084       .  S
C2461      C2462   1.417       .  A
C2462      C2463   1.509       .  S
C2463      H2467   1.111       .  S
C2463      H2468   1.109       .  S
C2463      H2469   1.111       .  S
C2466      H2470   1.109       .  S
C2466      H2471   1.111       .  S
C2466      H2472   1.111       .  S
C2473      C2478   1.406       .  A
C2473      H2480   1.084       .  S
C2474      C2475   1.415       .  A
C2475      C2482   1.507       .  S
C2476      C2477   1.404       .  A
C2476      H2481   1.084       .  S
C2477      C2478   1.411       .  A
C2478      C2479   1.506       .  S
C2479      H2483   1.111       .  S
C2479      H2484   1.110       .  S
C2479      H2485   1.110       .  S
C2482      H2486   1.110       .  S
C2482      H2487   1.110       .  S
C2482      H2488   1.111       .  S
C2489      C2490   1.404       .  A
C2489      C2494   1.408       .  A
C2489      H2496   1.084       .  S
C2490      C2491   1.419       .  A
C2491      C2492   1.405       .  A
C2491      C2498   1.509       .  S
C2492      C2493   1.403       .  A
C2492      H2497   1.084       .  S
C2493      C2494   1.417       .  A
C2494      C2495   1.508       .  S
C2495      H2499   1.111       .  S
C2495      H2500   1.109       .  S
C2495      H2501   1.110       .  S
C2498      H2502   1.109       .  S
C2498      H2503   1.110       .  S
C2498      H2504   1.111       .  S
C2505      C2506   1.402       .  A
C2505      C2510   1.402       .  A
C2505      H2512   1.084       .  S
C2506      C2507   1.421       .  A
C2507      C2508   1.406       .  A
C2507      C2514   1.509       .  S
C2508      C2509   1.404       .  A
C2508      H2513   1.084       .  S
C2509      C2510   1.421       .  A
C2510      C2511   1.509       .  S
C2511      H2515   1.111       .  S
C2511      H2516   1.110       .  S
C2511      H2517   1.110       .  S
C2514      H2518   1.110       .  S
C2514      H2519   1.110       .  S
C2514      H2520   1.111       .  S
C2521      C2522   1.405       .  A
C2521      C2526   1.404       .  A
C2521      H2528   1.084       .  S
C2522      C2523   1.421       .  A
C2523      C2524   1.403       .  A
C2523      C2530   1.509       .  S
C2524      C2525   1.402       .  A
C2524      H2529   1.084       .  S
C2525      C2526   1.419       .  A
C2526      C2527   1.509       .  S
C2527      H2531   1.111       .  S
C2527      H2532   1.110       .  S
C2527      H2533   1.111       .  S
C2530      H2534   1.110       .  S
C2530      H2535   1.110       .  S
C2530      H2536   1.111       .  S
C2537      C2538   1.411       .  A
C2537      C2542   1.405       .  A
C2537      H2544   1.083       .  S
C2538      C2539   1.419       .  A
C2539      C2540   1.405       .  A
C2539      C2546   1.507       .  S
C2540      C2541   1.403       .  A
C2540      H2545   1.085       .  S
C2541      C2542   1.409       .  A
C2542      C2543   1.507       .  S
C2543      H2547   1.111       .  S
C2543      H2548   1.111       .  S
C2543      H2549   1.110       .  S
C2546      H2550   1.110       .  S
C2546      H2551   1.110       .  S
C2546      H2552   1.111       .  S
C2553      C2554   1.404       .  A
C2553      C2558   1.403       .  A
C2553      H2560   1.084       .  S
C2554      C2555   1.421       .  A
C2555      C2556   1.406       .  A
C2555      C2562   1.508       .  S
C2556      C2557   1.400       .  A
C2556      H2561   1.084       .  S
C2557      C2558   1.414       .  A
C2558      C2559   1.509       .  S
C2559      H2563   1.111       .  S
C2559      H2564   1.109       .  S
C2559      H2565   1.110       .  S
C2562      H2566   1.109       .  S
C2562      H2567   1.110       .  S
C2562      H2568   1.111       .  S
C2569      C2570   1.406       .  A
C2569      C2574   1.411       .  A
C2569      H2576   1.083       .  S
C2570      C2571   1.416       .  A
C2571      C2572   1.400       .  A
C2571      C2578   1.510       .  S
C2572      C2573   1.404       .  A
C2572      H2577   1.083       .  S
C2573      C2574   1.419       .  A
C2574      C2575   1.506       .  S
C2575      H2579   1.111       .  S
C2575      H2580   1.110       .  S
C2575      H2581   1.110       .  S
C2578      H2582   1.109       .  S
C2578      H2583   1.111       .  S
C2578      H2584   1.111       .  S
C2585      C2586   1.406       .  A
C2585      C2590   1.406       .  A
C2585      H2592   1.084       .  S
C2586      C2587   1.423       .  A
C2587      C2588   1.406       .  A
C2587      C2594   1.508       .  S
C2588      C2589   1.400       .  A
C2588      H2593   1.084       .  S
C2589      C2590   1.416       .  A
C2590      C2591   1.509       .  S
C2591      H2595   1.111       .  S
C2591      H2596   1.111       .  S
C2591      H2597   1.109       .  S
C2594      H2598   1.110       .  S
C2594      H2599   1.109       .  S
C2594      H2600   1.111       .  S
C2601      C2602   1.403       .  A
C2601      C2606   1.397       .  A
C2601      H2608   1.085       .  S
C2602      C2603   1.418       .  A
C2603      C2604   1.413       .  A
C2603      C2610   1.505       .  S
C2607      H2611   1.111       .  S
C2607      H2612   1.111       .  S
C2607      H2613   1.109       .  S
C2610      H2614   1.110       .  S
C2610      H2615   1.110       .  S
C2610      H2616   1.111       .  S
C2617      C2618   1.404       .  A
C2617      C2622   1.404       .  A
C2617      H2624   1.084       .  S
C2618      C2619   1.420       .  A
C2619      C2620   1.407       .  A
C2619      C2626   1.508       .  S
C2620      C2621   1.404       .  A
C2620      H2625   1.084       .  S
C2621      C2622   1.419       .  A
C2622      C2623   1.509       .  S
C2623      H2627   1.111       .  S
C2623      H2628   1.111       .  S
C2623      H2629   1.109       .  S
C2626      H2630   1.110       .  S
C2626      H2631   1.110       .  S
C2626      H2632   1.111       .  S
C2633      C2634   1.403   1_545  A
C2633      C2638   1.401       .  A
C2633      H2640   1.084   1_545  S
C2634      C2635   1.413   1_565  A
C2635      C2636   1.406       .  A
C2635      C2642   1.507       .  S
C2636      C2637   1.407       .  A
C2636      H2641   1.084       .  S
C2637      C2638   1.418       .  A
C2638      C2639   1.509       .  S
C2639      H2643   1.111       .  S
C2639      H2644   1.110       .  S
C2639      H2645   1.110       .  S
C2642      H2646   1.110   1_545  S
C2642      H2647   1.111   1_545  S
C2642      H2648   1.111       .  S
C2649      C2650   1.404       .  A
C2649      C2654   1.404       .  A
C2649      H2656   1.083       .  S
C2650      C2651   1.420       .  A
C2651      C2652   1.403       .  A
C2651      C2658   1.509       .  S
C2652      C2653   1.403       .  A
C2652      H2657   1.083       .  S
C2653      C2654   1.419       .  A
C2654      C2655   1.509       .  S
C2655      H2659   1.111       .  S
C2655      H2660   1.111       .  S
C2655      H2661   1.109       .  S
C2658      H2662   1.110       .  S
C2658      H2663   1.110       .  S
C2658      H2664   1.111       .  S
C2665      C2666   1.405       .  A
C2665      C2670   1.407       .  A
C2665      H2672   1.085       .  S
C2666      C2667   1.417       .  A
C2667      C2668   1.397       .  A
C2667      C2674   1.510       .  S
C2668      C2669   1.403   1_455  A
C2668      H2673   1.085       .  S
C2669      C2670   1.418   1_655  A
C2670      C2671   1.507   1_455  S
C2671      H2675   1.111   1_655  S
C2671      H2676   1.110       .  S
C2671      H2677   1.110       .  S
C2674      H2678   1.111       .  S
C2674      H2679   1.109       .  S
C2674      H2680   1.111       .  S
C2681      C2682   1.405       .  A
C2681      H2688   1.084       .  S
C2682      C2683   1.415       .  A
C2683      C2684   1.408       .  A
C2683      C2690   1.507       .  S
C2685      C2686   1.415   1_556  A
C2686      C2687   1.508   1_554  S
C2687      H2691   1.111       .  S
C2687      H2692   1.111       .  S
C2687      H2693   1.110       .  S
C2690      H2694   1.110       .  S
C2690      H2695   1.110       .  S
C2690      H2696   1.111       .  S
C2697      C2698   1.409       .  A
C2697      C2702   1.403       .  A
C2697      H2704   1.084       .  S
C2698      C2699   1.418       .  A
C2699      C2700   1.404       .  A
C2699      C2706   1.508       .  S
C2700      C2701   1.403       .  A
C2700      H2705   1.085       .  S
C2701      C2702   1.409       .  A
C2702      C2703   1.507       .  S
C2703      H2707   1.111       .  S
C2703      H2708   1.110       .  S
C2703      H2709   1.111       .  S
C2706      H2710   1.110       .  S
C2706      H2711   1.110       .  S
C2706      H2712   1.111       .  S
C2713      C2714   1.407       .  A
C2713      C2718   1.407       .  A
C2713      H2720   1.083       .  S
C2714      C2715   1.416       .  A
C2715      C2716   1.404       .  A
C2715      C2722   1.508       .  S
C2716      C2717   1.406       .  A
C2716      H2721   1.084       .  S
C2717      C2718   1.413       .  A
C2718      C2719   1.506       .  S
C2719      H2723   1.111       .  S
C2719      H2724   1.111       .  S
C2722      H2726   1.111       .  S
C2722      H2727   1.110       .  S
C2722      H2728   1.111       .  S
C2729      C2730   1.401       .  A
C2729      C2734   1.403       .  A
C2729      H2736   1.084       .  S
C2730      C2731   1.416       .  A
C2731      C2732   1.406       .  A
C2731      C2738   1.508       .  S
C2732      C2733   1.404       .  A
C2732      H2737   1.084       .  S
C2733      C2734   1.419       .  A
C2734      C2735   1.509       .  S
C2735      H2739   1.111       .  S
C2735      H2740   1.109       .  S
C2735      H2741   1.111       .  S
C2738      H2742   1.109       .  S
C2738      H2743   1.111       .  S
C2738      H2744   1.111       .  S
C2745      C2746   1.409       .  A
C2745      C2750   1.406       .  A
C2745      H2752   1.084       .  S
C2746      C2747   1.417       .  A
C2747      C2748   1.404       .  A
C2747      C2754   1.508       .  S
C2748      C2749   1.408       .  A
C2748      H2753   1.084       .  S
C2749      C2750   1.416       .  A
C2750      C2751   1.508       .  S
C2751      H2755   1.111       .  S
C2751      H2756   1.110       .  S
C2751      H2757   1.110       .  S
C2754      H2758   1.110       .  S
C2754      H2759   1.110       .  S
C2754      H2760   1.111       .  S
C2761      C2762   1.404       .  A
C2761      C2766   1.397       .  A
C2761      H2768   1.083       .  S
C2762      C2763   1.418       .  A
C2763      C2764   1.410       .  A
C2763      C2770   1.506       .  S
C2764      C2765   1.406       .  A
C2764      H2769   1.083       .  S
C2765      C2766   1.416       .  A
C2766      C2767   1.511       .  S
C2767      H2771   1.111       .  S
C2767      H2772   1.111       .  S
C2767      H2773   1.109       .  S
C2770      H2774   1.110       .  S
C2770      H2775   1.110       .  S
C2770      H2776   1.111       .  S
C2777      C2778   1.404       .  A
C2777      C2782   1.399       .  A
C2777      H2784   1.084       .  S
C2778      C2779   1.416       .  A
C2779      C2780   1.408       .  A
C2779      C2786   1.507       .  S
C2780      C2781   1.407       .  A
C2780      H2785   1.084       .  S
C2781      C2782   1.420       .  A
C2782      C2783   1.511       .  S
C2783      H2787   1.111       .  S
C2783      H2788   1.110       .  S
C2783      H2789   1.110       .  S
C2786      H2790   1.110       .  S
C2786      H2791   1.110       .  S
C2786      H2792   1.111       .  S
C2793      C2794   1.404       .  A
C2793      C2798   1.405       .  A
C2793      H2800   1.084       .  S
C2794      C2795   1.422       .  A
C2795      C2796   1.404       .  A
C2795      C2802   1.509       .  S
C2796      C2797   1.403       .  A
C2796      H2801   1.084       .  S
C2797      C2798   1.422       .  A
C2798      C2799   1.509   1_455  S
C2799      H2803   1.111       .  S
C2799      H2804   1.110       .  S
C2799      H2805   1.110       .  S
C2802      H2806   1.110       .  S
C2802      H2807   1.111       .  S
C2802      H2808   1.111       .  S
C2809      C2810   1.402       .  A
C2809      C2814   1.399       .  A
C2809      H2816   1.085       .  S
C2810      C2811   1.414       .  A
C2811      C2812   1.407       .  A
C2812      C2813   1.407       .  A
C2812      H2817   1.084       .  S
C2813      C2814   1.417       .  A
C2814      C2815   1.510       .  S
C2815      H2819   1.111       .  S
C2815      H2820   1.109       .  S
C2815      H2821   1.111       .  S
C2818      H2822   1.110       .  S
C2818      H2824   1.111       .  S
C2825      C2826   1.403       .  A
C2825      C2830   1.403       .  A
C2825      H2832   1.084       .  S
C2826      C2827   1.419       .  A
C2827      C2828   1.406       .  A
C2827      C2834   1.508       .  S
C2828      C2829   1.402       .  A
C2828      H2833   1.084       .  S
C2829      C2830   1.417       .  A
C2830      C2831   1.509       .  S
C2831      H2835   1.111       .  S
C2831      H2836   1.109       .  S
C2831      H2837   1.111       .  S
C2834      H2838   1.109       .  S
C2834      H2839   1.110       .  S
C2834      H2840   1.111       .  S
C2841      C2842   1.404       .  A
C2841      C2846   1.404       .  A
C2841      H2848   1.084       .  S
C2842      C2843   1.412       .  A
C2843      C2844   1.406       .  A
C2843      C2850   1.507       .  S
C2844      C2845   1.409       .  A
C2844      H2849   1.083       .  S
C2845      C2846   1.417       .  A
C2846      C2847   1.508       .  S
C2847      H2851   1.111       .  S
C2847      H2852   1.110       .  S
C2847      H2853   1.110       .  S
C2850      H2854   1.110       .  S
C2850      H2855   1.110       .  S
C2850      H2856   1.111       .  S
C2857      C2858   1.405       .  A
C2857      C2862   1.403       .  A
C2857      H2864   1.084       .  S
C2858      C2859   1.417       .  A
C2859      C2860   1.405       .  A
C2859      C2866   1.507       .  S
C2860      C2861   1.404       .  A
C2860      H2865   1.084       .  S
C2861      C2862   1.419       .  A
C2862      C2863   1.510       .  S
C2863      H2867   1.111       .  S
C2863      H2868   1.111       .  S
C2863      H2869   1.109       .  S
C2866      H2870   1.110       .  S
C2866      H2872   1.111       .  S
C2873      C2874   1.406       .  A
C2873      C2878   1.403       .  A
C2873      H2880   1.084       .  S
C2874      C2875   1.413       .  A
C2875      C2876   1.407       .  A
C2875      C2882   1.506       .  S
C2876      C2877   1.408       .  A
C2876      H2881   1.083       .  S
C2877      C2878   1.415       .  A
C2878      C2879   1.508       .  S
C2879      H2883   1.111       .  S
C2879      H2884   1.110       .  S
C2879      H2885   1.110       .  S
C2882      H2886   1.110       .  S
C2882      H2887   1.110       .  S
C2882      H2888   1.111       .  S
C2889      C2890   1.405       .  A
C2889      C2894   1.407       .  A
C2889      H2896   1.084       .  S
C2890      C2891   1.420       .  A
C2891      C2892   1.406       .  A
C2891      C2898   1.508       .  S
C2892      C2893   1.402       .  A
C2892      H2897   1.084       .  S
C2893      C2894   1.417       .  A
C2894      C2895   1.508       .  S
C2895      H2899   1.111       .  S
C2895      H2900   1.111       .  S
C2895      H2901   1.109       .  S
C2898      H2902   1.110       .  S
C2898      H2903   1.109       .  S
C2898      H2904   1.111       .  S
C2905      C2906   1.406   1_455  A
C2905      H2912   1.084   1_455  S
C2906      C2907   1.418   1_655  A
C2907      C2914   1.508       .  S
C2908      C2909   1.406       .  A
C2908      H2913   1.084       .  S
C2909      C2910   1.417   1_556  A
C2910      C2911   1.508       .  S
C2911      H2916   1.110       .  S
C2914      H2919   1.110       .  S
C2914      H2920   1.111       .  S
C2921      C2922   1.406       .  A
C2921      C2926   1.410       .  A
C2921      H2928   1.084       .  S
C2922      C2923   1.420       .  A
C2923      C2924   1.402       .  A
C2924      C2925   1.404       .  A
C2924      H2929   1.084       .  S
C2925      C2926   1.421       .  A
C2926      C2927   1.507       .  S
C2927      H2931   1.111       .  S
C2927      H2932   1.110       .  S
C2927      H2933   1.110       .  S
C2930      H2934   1.110       .  S
C2930      H2935   1.109       .  S
C2930      H2936   1.111       .  S
C2937      C2938   1.401       .  A
C2937      C2942   1.397       .  A
C2937      H2944   1.084       .  S
C2938      C2939   1.416       .  A
C2939      C2940   1.409       .  A
C2939      C2946   1.507       .  S
C2940      C2941   1.408       .  A
C2940      H2945   1.084       .  S
C2941      C2942   1.420       .  A
C2942      C2943   1.511       .  S
C2943      H2947   1.111       .  S
C2943      H2949   1.110       .  S
C2946      H2950   1.110       .  S
C2946      H2951   1.110       .  S
C2946      H2952   1.111       .  S
C2953      C2958   1.406       .  A
C2953      H2960   1.083       .  S
C2954      C2955   1.418       .  A
C2955      C2956   1.404       .  A
C2955      C2962   1.508       .  S
C2956      H2961   1.084       .  S
C2957      C2958   1.423   1_556  A
C2958      C2959   1.509       .  S
C2959      H2963   1.111       .  S
C2959      H2964   1.110       .  S
C2959      H2965   1.110   1_554  S
C2962      H2966   1.111       .  S
C2962      H2967   1.109       .  S
C2962      H2968   1.111       .  S
C2969      C2970   1.406       .  A
C2969      C2974   1.402       .  A
C2969      H2976   1.083       .  S
C2970      C2971   1.418       .  A
C2971      C2972   1.407       .  A
C2971      C2978   1.507       .  S
C2972      C2973   1.407       .  A
C2972      H2977   1.084       .  S
C2973      C2974   1.420       .  A
C2974      C2975   1.510       .  S
C2975      H2979   1.111       .  S
C2975      H2980   1.110       .  S
C2975      H2981   1.110       .  S
C2978      H2982   1.110       .  S
C2978      H2983   1.110       .  S
C2978      H2984   1.111       .  S
C2985      C2986   1.408       .  A
C2985      C2990   1.405       .  A
C2985      H2992   1.084       .  S
C2986      C2987   1.416       .  A
C2987      C2988   1.405       .  A
C2987      C2994   1.508       .  S
C2988      C2989   1.406       .  A
C2988      H2993   1.084       .  S
C2989      C2990   1.413       .  A
C2990      C2991   1.507       .  S
C2991      H2995   1.111       .  S
C2991      H2996   1.110       .  S
C2991      H2997   1.110       .  S
C2994      H2998   1.110       .  S
C2994      H2999   1.110       .  S
C2994      H3000   1.111       .  S
C3001      C3002   1.409       .  A
C3001      C3006   1.403       .  A
C3001      H3008   1.083       .  S
C3002      C3003   1.419       .  A
C3003      C3004   1.406       .  A
C3003      C3010   1.507       .  S
C3004      C3005   1.404       .  A
C3004      H3009   1.084       .  S
C3005      C3006   1.410       .  A
C3006      C3007   1.508       .  S
C3007      H3011   1.111       .  S
C3007      H3012   1.111       .  S
C3007      H3013   1.110       .  S
C3010      H3014   1.110       .  S
C3010      H3015   1.111       .  S
C3010      H3016   1.111       .  S
C3017      C3018   1.409       .  A
C3017      C3022   1.410       .  A
C3017      H3024   1.084       .  S
C3018      C3019   1.420       .  A
C3019      C3020   1.398       .  A
C3019      C3026   1.510       .  S
C3020      C3021   1.402       .  A
C3020      H3025   1.085       .  S
C3021      C3022   1.417       .  A
C3022      C3023   1.507       .  S
C3023      H3027   1.111       .  S
C3023      H3028   1.110       .  S
C3023      H3029   1.110       .  S
C3026      H3030   1.110       .  S
C3026      H3031   1.110       .  S
C3026      H3032   1.111       .  S
C3033      C3034   1.401       .  A
C3033      C3038   1.406       .  A
C3033      H3040   1.084       .  S
C3034      C3035   1.416       .  A
C3035      C3036   1.404       .  A
C3035      C3042   1.509       .  S
C3036      C3037   1.404       .  A
C3036      H3041   1.084       .  S
C3037      C3038   1.419       .  A
C3038      C3039   1.508       .  S
C3039      H3043   1.111       .  S
C3039      H3044   1.109       .  S
C3039      H3045   1.110       .  S
C3042      H3046   1.109       .  S
C3042      H3047   1.111       .  S
C3042      H3048   1.111       .  S
C3049      C3050   1.409       .  A
C3049      C3054   1.409       .  A
C3049      H3056   1.084       .  S
C3050      C3051   1.416       .  A
C3051      C3052   1.402       .  A
C3051      C3058   1.508       .  S
C3052      C3053   1.405       .  A
C3052      H3057   1.084       .  S
C3053      C3054   1.413       .  A
C3054      C3055   1.506       .  S
C3055      H3059   1.111       .  S
C3055      H3060   1.110       .  S
C3055      H3061   1.110       .  S
C3058      H3062   1.110       .  S
C3058      H3063   1.110       .  S
C3058      H3064   1.111       .  S
C3065      C3066   1.409       .  A
C3065      C3070   1.407       .  A
C3065      H3072   1.084       .  S
C3066      C3067   1.418       .  A
C3067      C3068   1.406       .  A
C3067      C3074   1.508       .  S
C3068      C3069   1.408       .  A
C3068      H3073   1.084       .  S
C3069      C3070   1.417       .  A
C3070      C3071   1.508       .  S
C3071      H3075   1.111       .  S
C3071      H3076   1.110       .  S
C3071      H3077   1.110       .  S
C3074      H3078   1.110       .  S
C3074      H3079   1.110       .  S
C3074      H3080   1.111       .  S
C3081      C3082   1.404       .  A
C3081      C3086   1.402       .  A
C3081      H3088   1.085       .  S
C3082      C3083   1.417       .  A
C3083      C3084   1.407       .  A
C3083      C3090   1.507       .  S
C3084      C3085   1.406       .  A
C3084      H3089   1.084       .  S
C3085      C3086   1.417       .  A
C3086      C3087   1.509       .  S
C3087      H3091   1.111       .  S
C3087      H3092   1.111       .  S
C3087      H3093   1.109       .  S
C3090      H3094   1.110       .  S
C3090      H3095   1.110       .  S
C3090      H3096   1.111       .  S
C3097      C3098   1.403       .  A
C3097      C3102   1.402       .  A
C3097      H3104   1.084       .  S
C3098      C3099   1.417       .  A
C3099      C3100   1.409       .  A
C3099      C3106   1.507       .  S
C3100      C3101   1.408       .  A
C3100      H3105   1.084       .  S
C3101      C3102   1.421       .  A
C3102      C3103   1.510       .  S
C3103      H3107   1.111       .  S
C3103      H3108   1.109       .  S
C3103      H3109   1.110       .  S
C3106      H3110   1.110       .  S
C3106      H3111   1.110       .  S
C3106      H3112   1.111       .  S
C3113      C3114   1.407       .  A
C3113      C3118   1.404       .  A
C3113      H3120   1.084       .  S
C3114      C3115   1.418       .  A
C3115      C3116   1.405       .  A
C3115      C3122   1.508       .  S
C3116      C3117   1.408   1_545  A
C3116      H3121   1.084   1_545  S
C3117      C3118   1.417   1_565  A
C3118      C3119   1.508       .  S
C3119      H3123   1.111       .  S
C3119      H3124   1.111   1_545  S
C3119      H3125   1.110       .  S
C3122      H3126   1.111       .  S
C3122      H3127   1.110       .  S
C3122      H3128   1.111       .  S
C3129      C3130   1.408       .  A
C3129      C3134   1.411       .  A
C3129      H3136   1.083       .  S
C3130      C3131   1.420       .  A
C3131      C3132   1.398       .  A
C3131      C3138   1.511       .  S
C3132      C3133   1.403       .  A
C3132      H3137   1.083       .  S
C3133      C3134   1.418       .  A
C3134      C3135   1.506       .  S
C3135      H3139   1.111       .  S
C3135      H3140   1.110       .  S
C3138      H3142   1.110       .  S
C3138      H3143   1.110       .  S
C3138      H3144   1.111       .  S
C3145      C3146   1.405       .  A
C3145      C3150   1.405       .  A
C3145      H3152   1.084       .  S
C3146      C3147   1.414       .  A
C3147      C3148   1.407       .  A
C3147      C3154   1.507       .  S
C3148      C3149   1.408       .  A
C3148      H3153   1.084       .  S
C3149      C3150   1.418       .  A
C3150      C3151   1.508       .  S
C3151      H3155   1.111       .  S
C3151      H3156   1.110       .  S
C3151      H3157   1.110       .  S
C3154      H3158   1.110       .  S
C3154      H3159   1.111       .  S
C3154      H3160   1.111       .  S
C3161      C3162   1.409       .  A
C3161      C3166   1.409       .  A
C3161      H3168   1.084       .  S
C3162      C3163   1.416       .  A
C3163      C3164   1.403       .  A
C3163      C3170   1.508       .  S
C3164      C3165   1.404       .  A
C3164      H3169   1.084       .  S
C3165      C3166   1.413       .  A
C3166      C3167   1.506       .  S
C3167      H3171   1.111       .  S
C3167      H3172   1.110       .  S
C3167      H3173   1.110       .  S
C3170      H3174   1.110       .  S
C3170      H3175   1.110       .  S
C3170      H3176   1.111       .  S
C3177      C3178   1.404       .  A
C3177      C3182   1.401       .  A
C3177      H3184   1.084       .  S
C3178      C3179   1.416       .  A
C3179      C3180   1.409       .  A
C3180      C3181   1.407       .  A
C3180      H3185   1.084       .  S
C3181      C3182   1.418       .  A
C3182      C3183   1.510       .  S
C3183      H3187   1.111       .  S
C3183      H3188   1.109       .  S
C3183      H3189   1.111       .  S
C3186      H3190   1.110       .  S
C3186      H3191   1.110       .  S
C3186      H3192   1.111       .  S
C3193      C3194   1.402       .  A
C3193      C3198   1.408       .  A
C3193      H3200   1.084       .  S
C3194      C3195   1.416       .  A
C3195      C3196   1.405       .  A
C3195      C3202   1.509       .  S
C3196      C3197   1.404       .  A
C3196      H3201   1.084       .  S
C3197      C3198   1.421       .  A
C3198      C3199   1.508       .  S
C3199      H3203   1.111       .  S
C3199      H3204   1.109       .  S
C3199      H3205   1.110       .  S
C3202      H3206   1.109       .  S
C3202      H3207   1.111       .  S
C3202      H3208   1.111       .  S
C3209      C3210   1.402       .  A
C3209      C3214   1.402       .  A
C3209      H3216   1.084       .  S
C3210      C3211   1.417       .  A
C3211      C3212   1.408       .  A
C3211      C3218   1.507       .  S
C3212      C3213   1.404       .  A
C3212      H3217   1.084       .  S
C3213      C3214   1.418       .  A
C3214      C3215   1.510       .  S
C3215      H3219   1.111       .  S
C3215      H3220   1.111       .  S
C3215      H3221   1.109       .  S
C3218      H3222   1.110       .  S
C3218      H3223   1.108       .  S
C3218      H3224   1.111       .  S
C3225      C3230   1.406       .  A
C3225      H3232   1.084       .  S
C3226      C3227   1.421       .  A
C3227      C3228   1.404       .  A
C3227      C3234   1.509       .  S
C3228      H3233   1.084       .  S
C3229      C3230   1.421   1_565  A
C3230      C3231   1.509   1_545  S
C3231      H3235   1.111       .  S
C3231      H3236   1.110       .  S
C3231      H3237   1.110       .  S
C3234      H3238   1.110       .  S
C3234      H3239   1.110       .  S
C3234      H3240   1.111       .  S
