geometry optimzed in LAMMPS
_audit_creation_date              2020-11-30 
_audit_creation_method            'lammps2cif' 
_symmetry_space_group_name_H-M    'P1' 
_symmetry_Int_Tables_number       1 
_symmetry_cell_setting            triclinic 
loop_ 
_symmetry_equiv_pos_as_xyz 
  x,y,z 
_cell_length_a                    29.732649612594965 
_cell_length_b                    29.7494665117109 
_cell_length_c                    35.385604504179994 
_cell_angle_alpha                 90.05447664738115 
_cell_angle_beta                  89.76647573496449 
_cell_angle_gamma                 120.45544697055392 
loop_ 
_atom_site_label 
_atom_site_type_symbol 
_atom_site_fract_x 
_atom_site_fract_y 
_atom_site_fract_z 
_atom_site_charge 
O1          O  0.45447867  0.41622565  0.38699093    -0.56270
C2          C  0.37585284  0.29108141  0.31592990     0.76360
O3          O  0.31419681  0.39992298  0.32727286    -0.57430
C4          C  0.45500479  0.45777622  0.39585888     0.76330
C5          C  0.45280995  0.45518127  0.27075392     0.78720
Cd6        Cd  0.39234552  0.39287972  0.33454881     1.37460
O7          O  0.40318725  0.31664692  0.34399595    -0.56270
O8          O  0.47265089  0.44384669  0.29795345    -0.55080
C9          C  0.29075414  0.37339330  0.35635258     0.78680
O10         O  0.40419170  0.43771451  0.27308073    -0.57450
O11         O  0.35529051  0.31223102  0.29733910    -0.55900
O12         O  0.42564386  0.46858509  0.37698017    -0.55890
O13         O  0.31410095  0.35516539  0.37509487    -0.55060
O14         O  0.72194831  0.10786494  0.00769575    -0.56270
C15         C  0.58406446  0.02196560  0.06395948     0.76360
O16         O  0.58002227  0.97995600  0.45070644    -0.57430
C17         C  0.74846784  0.10294880  0.48160095     0.76330
C18         C  0.65584958  0.93133454  0.01838206     0.78720
Cd19       Cd  0.64520518  0.01996260  0.00125750     1.37470
O20         O  0.63344156  0.04741362  0.06498059    -0.56270
O21         O  0.67469812  0.97089830  0.03961498    -0.55080
C22         C  0.58470764  0.02233214  0.43893186     0.78680
O23         O  0.63366425  0.93347272  0.48854077    -0.57450
O24         O  0.56352203  0.99637566  0.03422142    -0.55900
O25         O  0.72740341  0.05920148  0.46511427    -0.55890
O26         O  0.61841897  0.06369004  0.45516534    -0.55060
O27         O  0.98769554  0.40598715  0.35306091    -0.56270
C28         C  0.93661804  0.29211407  0.43697743     0.76360
O29         O  0.10652646  0.40624724  0.42476574    -0.57430
C30         C  0.01674272  0.45512751  0.35240714     0.76330
C31         C  0.01688815  0.45545530  0.47783611     0.78720
Cd32       Cd  0.01898830  0.39456258  0.41538651     1.37470
O33         O  0.93193399  0.31653233  0.40933839    -0.56270
O34         O  0.97560452  0.42268974  0.46105084    -0.55080
C35         C  0.10380379  0.37679562  0.39791797     0.78680
O36         O  0.05909645  0.45907694  0.46651559    -0.57450
O37         O  0.97957761  0.31523696  0.45445139    -0.55900
O38         O  0.04641601  0.47566409  0.38040570    -0.55890
O39         O  0.06176317  0.35589199  0.37941918    -0.55060
O40         O  0.32239145  0.92962737  0.25804649    -0.56270
C41         C  0.45535940  0.02237737  0.31598611     0.76360
O42         O  0.44408693  0.05558840  0.19271246    -0.57430
C43         C  0.29445447  0.93240246  0.23233981     0.76330
C44         C  0.37569007  0.10290193  0.27193023     0.78720
Cd45       Cd  0.39402122  0.01977281  0.25213466     1.37470
O46         O  0.41136747  0.98276105  0.30882531    -0.56270
O47         O  0.35400943  0.06004446  0.28974866    -0.55080
C48         C  0.45647016  0.02087982  0.18903431     0.78680
O49         O  0.40452957  0.10645900  0.24427909    -0.57450
O50         O  0.46991915  0.06084730  0.29400709    -0.55900
O51         O  0.31099353  0.97647026  0.21704775    -0.55890
O52         O  0.43978760  0.98611054  0.21430882    -0.55060
O53         O  0.62523690  0.71586063  0.08933176    -0.56270
C54         C  0.58219800  0.58374023  0.14582980     0.76360
O55         O  0.62474665  0.58403727  0.03096498    -0.57430
C56         C  0.65811412  0.74593461  0.06505791     0.76330
C57         C  0.74795658  0.66609928  0.10423367     0.78720
Cd58       Cd  0.64604336  0.64674138  0.08375760     1.37470
O59         O  0.59492303  0.63109976  0.14243866    -0.56270
O60         O  0.72247259  0.68005552  0.12499885    -0.55080
C61         C  0.58600779  0.58683686  0.01929334     0.78680
O62         O  0.72723351  0.64520344  0.07297176    -0.57450
O63         O  0.59918560  0.56586171  0.12068627    -0.55900
O64         O  0.68827699  0.73187381  0.05098255    -0.55890
O65         O  0.57658492  0.61804766  0.03697968    -0.55060
O66         O  0.10575262  0.72134097  0.15389160    -0.56270
C67         C  0.01694675  0.58492234  0.10117052     0.76360
O68         O  0.98633424  0.59974961  0.22652384    -0.57430
C69         C  0.10741594  0.74538553  0.18386942     0.76330
C70         C  0.93484101  0.66401673  0.14813910     0.78720
Cd71       Cd  0.01892456  0.64571930  0.16544763     1.37470
O72         O  0.05764926  0.62720709  0.10996209    -0.56270
O73         O  0.97977554  0.69145124  0.13370656    -0.55080
C74         C  0.01807711  0.58328682  0.22812911     0.78680
O75         O  0.92955947  0.62915221  0.17121275    -0.57450
O76         O  0.97720213  0.57192916  0.12158584    -0.55900
O77         O  0.06705932  0.72446268  0.20457497    -0.55890
O78         O  0.05000708  0.59601781  0.20099158    -0.55060
C79         C  0.79853875  0.67199466  0.11650389    -0.03790
C80         C  0.83944954  0.68604579  0.09019272    -0.00910
C81         C  0.88487816  0.68539845  0.10074974     0.04080
C82         C  0.89009783  0.67106769  0.13797254    -0.03790
C83         C  0.85073028  0.66075559  0.16498208    -0.00900
C84         C  0.80513444  0.66088146  0.15428501     0.04080
C85         C  0.83527311  0.70202635  0.05223561     0.38730
C86         C  0.85709783  0.65049531  0.20412886     0.38720
C87         C  0.76414091  0.64729968  0.18209816     0.37140
C88         C  0.92510823  0.69759202  0.07258149     0.37140
N89         N  0.73160219  0.63656497  0.20436449    -0.37680
N90         N  0.95712967  0.70743786  0.05004184    -0.37680
N91         N  0.86207947  0.64236607  0.23535572    -0.37120
N92         N  0.83209438  0.71498066  0.02201655    -0.37130
C93         C  0.15516220  0.79439801  0.19498277    -0.03790
C94         C  0.20406357  0.79721834  0.19351905    -0.00910
C95         C  0.24936481  0.84252091  0.20571664     0.04080
C96         C  0.24631300  0.88546757  0.21940581    -0.03790
C97         C  0.19779986  0.88331884  0.22018422    -0.00900
C98         C  0.15218763  0.83768609  0.20830367     0.04080
C99         C  0.20776385  0.75278238  0.18078820     0.38730
C100        C  0.19465045  0.92756493  0.23403189     0.38720
C101        C  0.10244164  0.83574941  0.20910886     0.37140
C102        C  0.29955909  0.84543043  0.20327571     0.37140
N103        N  0.06276404  0.83421925  0.20975494    -0.37680
N104        N  0.33963754  0.84795001  0.20126994    -0.37680
N105        N  0.19215520  0.96287566  0.24507371    -0.37120
N106        N  0.21073812  0.71736596  0.17067493    -0.37130
C107        C  0.01639880  0.48741357  0.32058495    -0.03790
C108        C  0.01047173  0.53088160  0.32774987    -0.00910
C109        C  0.01113693  0.56227448  0.29762335     0.04080
C110        C  0.01786194  0.55055414  0.25999921    -0.03790
C111        C  0.02470886  0.50751145  0.25296970    -0.00900
C112        C  0.02371020  0.47600476  0.28311968     0.04080
C113        C  0.00252745  0.54277898  0.36614081     0.38730
C114        C  0.03208623  0.49488949  0.21464389     0.38720
C115        C  0.03200209  0.43280445  0.27558350     0.37140
C116        C  0.00693771  0.60786857  0.30566794     0.37140
N117        N  0.03871563  0.39846332  0.26934759    -0.37680
N118        N  0.00376935  0.64431971  0.31210947    -0.37680
N119        N  0.03826031  0.48489821  0.18414696    -0.37120
N120        N  0.99609856  0.55225882  0.39672217    -0.37130
C121        C  0.01595271  0.48849867  0.00891963    -0.03790
C122        C  0.98265145  0.46558311  0.04035039    -0.00910
C123        C  0.98375553  0.49681834  0.07076152     0.04080
C124        C  0.01593597  0.55186121  0.06902583    -0.03790
C125        C  0.04722418  0.57488600  0.03647154    -0.00900
C126        C  0.04797717  0.54327561  0.00697037     0.04080
C127        C  0.94726853  0.40964730  0.04171613     0.38730
C128        C  0.07710561  0.63118239  0.03234574     0.38720
C129        C  0.08002444  0.56738320  0.47370231     0.37140
C130        C  0.95308293  0.47159820  0.10438316     0.37140
N131        N  0.10546345  0.58661371  0.44713951    -0.37680
N132        N  0.92875824  0.45126245  0.13117502    -0.37680
N133        N  0.10068789  0.67605889  0.02887602    -0.37120
N134        N  0.91817295  0.36522042  0.04294305    -0.37130
C135        C  0.48849312  0.02352267  0.34806751    -0.03790
C136        C  0.46535779  0.99362603  0.38116992    -0.00910
C137        C  0.49689992  0.99293127  0.41061773     0.04080
C138        C  0.55177671  0.02336816  0.40796441    -0.03790
C139        C  0.57495497  0.05510466  0.37591761    -0.00900
C140        C  0.54370792  0.05427310  0.34571505     0.04080
C141        C  0.40907256  0.96495809  0.38587381     0.38730
C142        C  0.63122699  0.08822244  0.37361229     0.38720
C143        C  0.56908251  0.08375241  0.31172210     0.37140
C144        C  0.47270760  0.96252922  0.44450402     0.37140
N145        N  0.58954358  0.10718181  0.28465728    -0.37610
N146        N  0.45342839  0.93842391  0.47155835    -0.37680
N147        N  0.67600384  0.11527441  0.37165313    -0.37120
N148        N  0.36421293  0.94225056  0.38978723    -0.37130
C149        C  0.55156237  0.02174301  0.09591499    -0.03790
C150        C  0.51181401  0.03359293  0.08960730    -0.00910
C151        C  0.48073623  0.03329184  0.11995707     0.04080
C152        C  0.48892540  0.02079670  0.15690930    -0.03790
C153        C  0.52786486  0.00749570  0.16293299    -0.00900
C154        C  0.55903635  0.00805808  0.13255226     0.04080
C155        C  0.50326041  0.04682165  0.05186695     0.38730
C156        C  0.53668935  0.99394120  0.20048244     0.38720
C157        C  0.59738670  0.99235778  0.13872113     0.37140
C158        C  0.43899037  0.04391249  0.11270259     0.37140
N159        N  0.62773446  0.97952702  0.14354986    -0.37680
N160        N  0.40561966  0.05223881  0.10685282    -0.37680
N161        N  0.54363291  0.98291252  0.23036911    -0.37120
N162        N  0.49641592  0.05725029  0.02175294    -0.37130
C163        C  0.65773971  0.88402894  0.02877921    -0.03790
C164        C  0.70462255  0.88792770  0.04157675    -0.00910
C165        C  0.70524063  0.84275460  0.05302549     0.04080
C166        C  0.65883201  0.79369614  0.05234370    -0.03790
C167        C  0.61222664  0.78977578  0.03907391    -0.00900
C168        C  0.61166793  0.83467470  0.02732846     0.04080
C169        C  0.75245713  0.93823671  0.04235556     0.38730
C170        C  0.56483882  0.73916197  0.03657855     0.38720
C171        C  0.56293770  0.83009431  0.01514080     0.37140
C172        C  0.75328546  0.84696993  0.06642627     0.37140
N173        N  0.52407499  0.82643255  0.00548012    -0.37680
N174        N  0.79163202  0.85035622  0.07709744    -0.37680
N175        N  0.52712264  0.69881931  0.03452364    -0.37120
N176        N  0.79061966  0.97835633  0.04298583    -0.37130
C177        C  0.89327763  0.23964710  0.44862066    -0.03790
C178        C  0.88226935  0.22633916  0.48731204    -0.00910
C179        C  0.83552533  0.18102495  0.49813852     0.04080
C180        C  0.80086675  0.14689985  0.47041720    -0.03790
C181        C  0.81589526  0.15639082  0.43189289    -0.00900
C182        C  0.86120669  0.20310204  0.42102197     0.04080
C183        C  0.91882375  0.25880054  0.01622953     0.38730
C184        C  0.78483730  0.11860784  0.40313857     0.38720
C185        C  0.87566330  0.21265596  0.38134980     0.37140
C186        C  0.82383437  0.16901356  0.03798791     0.37140
N187        N  0.88725442  0.22010213  0.34973293    -0.37680
N188        N  0.81461629  0.15952389  0.06977199    -0.37680
N189        N  0.76083039  0.08821303  0.38011953    -0.37120
N190        N  0.94835622  0.28378180  0.03941558    -0.37130
C191        C  0.48878531  0.49229364  0.42661970    -0.03790
C192        C  0.46808021  0.51044371  0.45475306    -0.00910
C193        C  0.49934416  0.54021393  0.48533803     0.04080
C194        C  0.55282838  0.55499178  0.48697048    -0.03790
C195        C  0.57419543  0.53936149  0.45738277    -0.00900
C196        C  0.54213196  0.50751023  0.42777390     0.04080
C197        C  0.41439408  0.49848336  0.45250459     0.38730
C198        C  0.62964721  0.55765316  0.45627012     0.38720
C199        C  0.56482773  0.49268760  0.39728738     0.37140
C200        C  0.47530719  0.55370721  0.01570846     0.37140
N201        N  0.58289898  0.48106855  0.37285852    -0.37680
N202        N  0.45585367  0.56413000  0.03988506    -0.37680
N203        N  0.67390781  0.57242703  0.45516235    -0.37120
N204        N  0.37198581  0.49013099  0.45068402    -0.37130
C205        C  0.54893335  0.55069026  0.17753699    -0.03790
C206        C  0.50386567  0.55207753  0.18837792    -0.00910
C207        C  0.47236199  0.52090140  0.21859682     0.04080
C208        C  0.48521623  0.48734661  0.23811937    -0.03790
C209        C  0.52997134  0.48535722  0.22663873    -0.00900
C210        C  0.56174172  0.51708320  0.19675551     0.04080
C211        C  0.48874525  0.58439316  0.16760893     0.38730
C212        C  0.54311962  0.44974678  0.24477215     0.38720
C213        C  0.60853480  0.51596983  0.18652411     0.37140
C214        C  0.42745699  0.52471334  0.22995968     0.37140
N215        N  0.64578474  0.51496958  0.17845358    -0.37680
N216        N  0.39167499  0.52789233  0.23888579    -0.37680
N217        N  0.55377763  0.42145057  0.25913160    -0.37120
N218        N  0.47661930  0.61001127  0.15095073    -0.37130
C219        C  0.14795968  0.36823199  0.38823257    -0.03790
C220        C  0.18418218  0.37336646  0.41629902    -0.00910
C221        C  0.22894956  0.37096527  0.40636351     0.04080
C222        C  0.23916837  0.36555996  0.36810313    -0.03790
C223        C  0.20080794  0.35538967  0.34070135    -0.00900
C224        C  0.15509408  0.35591745  0.35071733     0.04080
C225        C  0.17532160  0.38022467  0.45572324     0.38730
C226        C  0.20757013  0.34263659  0.30224268     0.38720
C227        C  0.11608654  0.34414407  0.32190687     0.37140
C228        C  0.26448445  0.37439782  0.43572110     0.37140
N229        N  0.08495708  0.33387754  0.29877332    -0.37680
N230        N  0.29211491  0.37610804  0.45934757    -0.37680
N231        N  0.21274680  0.33213687  0.27165644    -0.37120
N232        N  0.16848360  0.38577070  0.48718091    -0.37130
C233        C  0.36910960  0.14745467  0.28335311    -0.03790
C234        C  0.36606641  0.17993301  0.25558575    -0.00910
C235        C  0.36665338  0.22597763  0.26616263     0.04080
C236        C  0.36952834  0.23976632  0.30481476    -0.03790
C237        C  0.36844531  0.20510067  0.33266215    -0.00900
C238        C  0.36869945  0.15947843  0.32202394     0.04080
C239        C  0.36152896  0.16567760  0.21593200     0.38730
C240        C  0.36616325  0.21569745  0.37246539     0.38720
C241        C  0.37080845  0.12625423  0.35114497     0.37140
C242        C  0.36628393  0.25988820  0.23683183     0.37140
N243        N  0.37248181  0.09982426  0.37441308    -0.37680
N244        N  0.36588093  0.28674509  0.21335110    -0.37680
N245        N  0.36413252  0.22394126  0.40421021    -0.37120
N246        N  0.35772497  0.15427862  0.18433167    -0.37130
O247        O  0.45447865  0.41622564  0.88699093    -0.56270
C248        C  0.37585281  0.29108141  0.81592990     0.76360
O249        O  0.31419680  0.39992299  0.82727287    -0.57430
C250        C  0.45500478  0.45777622  0.89585887     0.76330
C251        C  0.45280991  0.45518125  0.77075391     0.78720
Cd252      Cd  0.39234550  0.39287972  0.83454881     1.37460
O253        O  0.40318724  0.31664693  0.84399595    -0.56270
O254        O  0.47265087  0.44384669  0.79795345    -0.55080
C255        C  0.29075412  0.37339331  0.85635260     0.78680
O256        O  0.40419166  0.43771448  0.77308072    -0.57450
O257        O  0.35529047  0.31223101  0.79733911    -0.55900
O258        O  0.42564386  0.46858510  0.87698016    -0.55890
O259        O  0.31410094  0.35516539  0.87509488    -0.55060
O260        O  0.72194832  0.10786493  0.50769576    -0.56270
C261        C  0.58406446  0.02196560  0.56395950     0.76360
O262        O  0.58002227  0.97995601  0.95070643    -0.57430
C263        C  0.74846784  0.10294881  0.98160095     0.76330
C264        C  0.65584958  0.93133454  0.51838208     0.78720
Cd265      Cd  0.64520518  0.01996259  0.50125752     1.37470
O266        O  0.63344156  0.04741364  0.56498060    -0.56270
O267        O  0.67469813  0.97089831  0.53961499    -0.55080
C268        C  0.58470765  0.02233216  0.93893184     0.78680
O269        O  0.63366425  0.93347273  0.98854076    -0.57450
O270        O  0.56352203  0.99637564  0.53422144    -0.55900
O271        O  0.72740342  0.05920149  0.96511427    -0.55890
O272        O  0.61841898  0.06369005  0.95516533    -0.55060
O273        O  0.98769554  0.40598716  0.85306092    -0.56270
C274        C  0.93661804  0.29211409  0.93697745     0.76360
O275        O  0.10652646  0.40624726  0.92476575    -0.57430
C276        C  0.01674273  0.45512752  0.85240714     0.76330
C277        C  0.01688814  0.45545532  0.97783611     0.78720
Cd278      Cd  0.01898829  0.39456259  0.91538651     1.37470
O279        O  0.93193399  0.31653235  0.90933840    -0.56270
O280        O  0.97560451  0.42268976  0.96105083    -0.55080
C281        C  0.10380378  0.37679563  0.89791799     0.78680
O282        O  0.05909644  0.45907696  0.96651560    -0.57450
O283        O  0.97957761  0.31523698  0.95445141    -0.55900
O284        O  0.04641601  0.47566410  0.88040570    -0.55890
O285        O  0.06176316  0.35589199  0.87941920    -0.55060
O286        O  0.32239144  0.92962737  0.75804651    -0.56270
C287        C  0.45535940  0.02237739  0.81598611     0.76360
O288        O  0.44408690  0.05558839  0.69271246    -0.57430
C289        C  0.29445446  0.93240245  0.73233983     0.76330
C290        C  0.37569005  0.10290193  0.77193023     0.78720
Cd291      Cd  0.39402120  0.01977281  0.75213466     1.37470
O292        O  0.41136747  0.98276107  0.80882531    -0.56270
O293        O  0.35400941  0.06004447  0.78974867    -0.55080
C294        C  0.45647014  0.02087983  0.68903431     0.78680
O295        O  0.40452954  0.10645900  0.74427909    -0.57450
O296        O  0.46991914  0.06084732  0.79400708    -0.55900
O297        O  0.31099351  0.97647024  0.71704776    -0.55890
O298        O  0.43978760  0.98611055  0.71430883    -0.55060
O299        O  0.62523691  0.71586063  0.58933177    -0.56270
C300        C  0.58219799  0.58374021  0.64582980     0.76360
O301        O  0.62474666  0.58403727  0.53096498    -0.57430
C302        C  0.65811412  0.74593461  0.56505792     0.76330
C303        C  0.74795658  0.66609928  0.60423369     0.78720
Cd304      Cd  0.64604336  0.64674137  0.58375761     1.37470
O305        O  0.59492300  0.63109974  0.64243865    -0.56270
O306        O  0.72247258  0.68005551  0.62499887    -0.55080
C307        C  0.58600779  0.58683686  0.51929335     0.78680
O308        O  0.72723351  0.64520345  0.57297177    -0.57450
O309        O  0.59918561  0.56586170  0.62068628    -0.55900
O310        O  0.68827698  0.73187381  0.55098255    -0.55890
O311        O  0.57658492  0.61804765  0.53697969    -0.55060
O312        O  0.10575263  0.72134096  0.65389160    -0.56270
C313        C  0.01694676  0.58492234  0.60117051     0.76360
O314        O  0.98633424  0.59974959  0.72652383    -0.57430
C315        C  0.10741594  0.74538552  0.68386943     0.76330
C316        C  0.93484101  0.66401672  0.64813910     0.78720
Cd317      Cd  0.01892456  0.64571929  0.66544762     1.37470
O318        O  0.05764927  0.62720710  0.60996207    -0.56270
O319        O  0.97977554  0.69145123  0.63370656    -0.55080
C320        C  0.01807711  0.58328681  0.72812909     0.78680
O321        O  0.92955946  0.62915219  0.67121273    -0.57450
O322        O  0.97720214  0.57192915  0.62158584    -0.55900
O323        O  0.06705931  0.72446266  0.70457498    -0.55890
O324        O  0.05000708  0.59601780  0.70099157    -0.55060
C325        C  0.79853874  0.67199466  0.61650390    -0.03790
C326        C  0.83944954  0.68604580  0.59019273    -0.00910
C327        C  0.88487817  0.68539847  0.60074974     0.04080
C328        C  0.89009783  0.67106769  0.63797254    -0.03790
C329        C  0.85073027  0.66075556  0.66498209    -0.00900
C330        C  0.80513444  0.66088144  0.65428502     0.04080
C331        C  0.83527312  0.70202639  0.55223563     0.38730
C332        C  0.85709782  0.65049526  0.70412885     0.38720
C333        C  0.76414090  0.64729965  0.68209817     0.37140
C334        C  0.92510824  0.69759206  0.57258150     0.37140
N335        N  0.73160218  0.63656493  0.70436450    -0.37680
N336        N  0.95712968  0.70743792  0.55004185    -0.37680
N337        N  0.86207945  0.64236600  0.73535571    -0.37120
N338        N  0.83209440  0.71498072  0.52201657    -0.37130
C339        C  0.15516219  0.79439800  0.69498279    -0.03790
C340        C  0.20406356  0.79721832  0.69351908    -0.00910
C341        C  0.24936480  0.84252089  0.70571668     0.04080
C342        C  0.24631298  0.88546755  0.71940584    -0.03790
C343        C  0.19779984  0.88331882  0.72018424    -0.00900
C344        C  0.15218762  0.83768607  0.70830369     0.04080
C345        C  0.20776385  0.75278236  0.68078824     0.38730
C346        C  0.19465043  0.92756491  0.73403191     0.38720
C347        C  0.10244162  0.83574939  0.70910888     0.37140
C348        C  0.29955908  0.84543041  0.70327575     0.37140
N349        N  0.06276403  0.83421922  0.70975496    -0.37680
N350        N  0.33963753  0.84794999  0.70127000    -0.37680
N351        N  0.19215518  0.96287564  0.74507373    -0.37120
N352        N  0.21073811  0.71736594  0.67067498    -0.37130
C353        C  0.01639881  0.48741357  0.82058494    -0.03790
C354        C  0.01047175  0.53088161  0.82774987    -0.00910
C355        C  0.01113694  0.56227448  0.79762334     0.04080
C356        C  0.01786194  0.55055414  0.75999920    -0.03790
C357        C  0.02470885  0.50751144  0.75296970    -0.00900
C358        C  0.02371019  0.47600475  0.78311968     0.04080
C359        C  0.00252747  0.54277900  0.86614081     0.38730
C360        C  0.03208622  0.49488948  0.71464389     0.38720
C361        C  0.03200208  0.43280444  0.77558350     0.37140
C362        C  0.00693774  0.60786858  0.80566792     0.37140
N363        N  0.03871561  0.39846330  0.76934759    -0.37680
N364        N  0.00376939  0.64431973  0.81210945    -0.37680
N365        N  0.03826030  0.48489818  0.68414696    -0.37120
N366        N  0.99609859  0.55225885  0.89672216    -0.37130
C367        C  0.01595273  0.48849865  0.50891963    -0.03790
C368        C  0.98265148  0.46558310  0.54035039    -0.00910
C369        C  0.98375555  0.49681833  0.57076152     0.04080
C370        C  0.01593598  0.55186120  0.56902582    -0.03790
C371        C  0.04722419  0.57488599  0.53647153    -0.00900
C372        C  0.04797718  0.54327560  0.50697036     0.04080
C373        C  0.94726857  0.40964729  0.54171614     0.38730
C374        C  0.07710562  0.63118238  0.53234573     0.38720
C375        C  0.08002444  0.56738322  0.97370232     0.37140
C376        C  0.95308296  0.47159820  0.60438316     0.37140
N377        N  0.10546345  0.58661373  0.94713953    -0.37680
N378        N  0.92875827  0.45126245  0.63117502    -0.37680
N379        N  0.10068789  0.67605887  0.52887600    -0.37120
N380        N  0.91817300  0.36522040  0.54294307    -0.37130
C381        C  0.48849313  0.02352269  0.84806751    -0.03790
C382        C  0.46535779  0.99362607  0.88116992    -0.00910
C383        C  0.49689993  0.99293131  0.91061773     0.04080
C384        C  0.55177671  0.02336818  0.90796440    -0.03790
C385        C  0.57495497  0.05510467  0.87591759    -0.00900
C386        C  0.54370792  0.05427311  0.84571504     0.04080
C387        C  0.40907257  0.96495814  0.88587382     0.38730
C388        C  0.63122700  0.08822243  0.87361227     0.38720
C389        C  0.56908251  0.08375241  0.81172208     0.37140
C390        C  0.47270761  0.96252926  0.94450403     0.37140
N391        N  0.58954358  0.10718181  0.78465726    -0.37610
N392        N  0.45342840  0.93842397  0.97155836    -0.37680
N393        N  0.67600385  0.11527439  0.87165309    -0.37120
N394        N  0.36421294  0.94225063  0.88978724    -0.37130
C395        C  0.55156237  0.02174302  0.59591500    -0.03790
C396        C  0.51181399  0.03359291  0.58960730    -0.00910
C397        C  0.48073620  0.03329182  0.61995707     0.04080
C398        C  0.48892539  0.02079671  0.65690930    -0.03790
C399        C  0.52786487  0.00749574  0.66293301    -0.00900
C400        C  0.55903637  0.00805812  0.63255228     0.04080
C401        C  0.50326038  0.04682160  0.55186695     0.38730
C402        C  0.53668938  0.99394126  0.70048246     0.38720
C403        C  0.59738673  0.99235784  0.63872115     0.37140
C404        C  0.43899033  0.04391245  0.61270258     0.37140
N405        N  0.62773451  0.97952711  0.64354990    -0.37680
N406        N  0.40561961  0.05223874  0.60685281    -0.37680
N407        N  0.54363295  0.98291261  0.73036914    -0.37120
N408        N  0.49641588  0.05725023  0.52175294    -0.37130
C409        C  0.65773972  0.88402894  0.52877923    -0.03790
C410        C  0.70462255  0.88792770  0.54157676    -0.00910
C411        C  0.70524064  0.84275460  0.55302550     0.04080
C412        C  0.65883202  0.79369614  0.55234371    -0.03790
C413        C  0.61222664  0.78977578  0.53907393    -0.00900
C414        C  0.61166794  0.83467470  0.52732848     0.04080
C415        C  0.75245713  0.93823671  0.54235558     0.38730
C416        C  0.56483882  0.73916197  0.53657857     0.38720
C417        C  0.56293770  0.83009431  0.51514082     0.37140
C418        C  0.75328547  0.84696993  0.56642627     0.37140
N419        N  0.52407499  0.82643255  0.50548014    -0.37680
N420        N  0.79163202  0.85035622  0.57709744    -0.37680
N421        N  0.52712264  0.69881931  0.53452365    -0.37120
N422        N  0.79061966  0.97835633  0.54298584    -0.37130
C423        C  0.89327763  0.23964712  0.94862067    -0.03790
C424        C  0.88226934  0.22633918  0.98731205    -0.00910
C425        C  0.83552532  0.18102497  0.99813852     0.04080
C426        C  0.80086676  0.14689987  0.97041721    -0.03790
C427        C  0.81589527  0.15639083  0.93189290    -0.00900
C428        C  0.86120670  0.20310206  0.92102197     0.04080
C429        C  0.91882377  0.25880051  0.51622952     0.38730
C430        C  0.78483732  0.11860785  0.90313858     0.38720
C431        C  0.87566332  0.21265598  0.88134981     0.37140
C432        C  0.82383439  0.16901353  0.53798791     0.37140
N433        N  0.88725445  0.22010214  0.84973295    -0.37680
N434        N  0.81461632  0.15952387  0.56977199    -0.37680
N435        N  0.76083041  0.08821304  0.88011953    -0.37120
N436        N  0.94835625  0.28378177  0.53941556    -0.37130
C437        C  0.48878530  0.49229364  0.92661969    -0.03790
C438        C  0.46808021  0.51044373  0.95475305    -0.00910
C439        C  0.49934416  0.54021394  0.98533802     0.04080
C440        C  0.55282837  0.55499177  0.98697047    -0.03790
C441        C  0.57419542  0.53936146  0.95738278    -0.00900
C442        C  0.54213195  0.50751021  0.92777390     0.04080
C443        C  0.41439409  0.49848339  0.95250458     0.38730
C444        C  0.62964720  0.55765311  0.95627013     0.38720
C445        C  0.56482771  0.49268756  0.89728739     0.37140
C446        C  0.47530718  0.55370718  0.51570848     0.37140
N447        N  0.58289895  0.48106849  0.87285854    -0.37680
N448        N  0.45585366  0.56412995  0.53988509    -0.37680
N449        N  0.67390779  0.57242697  0.95516236    -0.37120
N450        N  0.37198582  0.49013103  0.95068400    -0.37130
C451        C  0.54893332  0.55069023  0.67753697    -0.03790
C452        C  0.50386562  0.55207747  0.68837789    -0.00910
C453        C  0.47236193  0.52090134  0.71859678     0.04080
C454        C  0.48521620  0.48734658  0.73811936    -0.03790
C455        C  0.52997132  0.48535722  0.72663873    -0.00900
C456        C  0.56174171  0.51708319  0.69675551     0.04080
C457        C  0.48874518  0.58439308  0.66760888     0.38730
C458        C  0.54311962  0.44974680  0.74477218     0.38720
C459        C  0.60853480  0.51596984  0.68652413     0.37140
C460        C  0.42745691  0.52471324  0.72995962     0.37140
N461        N  0.64578475  0.51496960  0.67845361    -0.37680
N462        N  0.39167488  0.52789221  0.73888570    -0.37680
N463        N  0.55377765  0.42145061  0.75913164    -0.37120
N464        N  0.47661922  0.61001116  0.65095065    -0.37130
C465        C  0.14795967  0.36823199  0.88823259    -0.03790
C466        C  0.18418217  0.37336647  0.91629904    -0.00910
C467        C  0.22894955  0.37096528  0.90636353     0.04080
C468        C  0.23916836  0.36555996  0.86810314    -0.03790
C469        C  0.20080792  0.35538967  0.84070137    -0.00900
C470        C  0.15509406  0.35591744  0.85071734     0.04080
C471        C  0.17532159  0.38022468  0.95572326     0.38730
C472        C  0.20757011  0.34263658  0.80224270     0.38720
C473        C  0.11608652  0.34414406  0.82190689     0.37140
C474        C  0.26448445  0.37439784  0.93572111     0.37140
N475        N  0.08495706  0.33387753  0.79877334    -0.37680
N476        N  0.29211492  0.37610808  0.95934758    -0.37680
N477        N  0.21274678  0.33213684  0.77165647    -0.37120
N478        N  0.16848359  0.38577072  0.98718092    -0.37130
C479        C  0.36910958  0.14745467  0.78335311    -0.03790
C480        C  0.36606638  0.17993300  0.75558575    -0.00910
C481        C  0.36665334  0.22597762  0.76616263     0.04080
C482        C  0.36952832  0.23976632  0.80481477    -0.03790
C483        C  0.36844530  0.20510068  0.83266215    -0.00900
C484        C  0.36869944  0.15947844  0.82202394     0.04080
C485        C  0.36152891  0.16567759  0.71593201     0.38730
C486        C  0.36616326  0.21569746  0.87246540     0.38720
C487        C  0.37080846  0.12625424  0.85114497     0.37140
C488        C  0.36628388  0.25988818  0.73683183     0.37140
N489        N  0.37248183  0.09982428  0.87441308    -0.37680
N490        N  0.36588087  0.28674507  0.71335110    -0.37680
N491        N  0.36413254  0.22394128  0.90421022    -0.37120
N492        N  0.35772491  0.15427860  0.68433167    -0.37130
loop_ 
_geom_bond_atom_site_label_1 
_geom_bond_atom_site_label_2 
_geom_bond_distance 
_geom_bond_site_symmetry_2 
_ccdc_geom_bond_type 
O1            C4   1.267       .  A
O1           Cd6   2.462       .  S
C2           O11   1.264       .  A
C2            O7   1.266       .  A
C2          C236   1.493       .  S
O3            C9   1.267       .  A
O3           Cd6   2.451       .  S
C4           O12   1.266       .  A
C4          C191   1.486       .  S
C5           O10   1.267       .  A
C5            O8   1.263       .  A
C5          C208   1.495       .  S
Cd6          O13   2.462       .  S
Cd6          O12   2.460       .  S
Cd6          O11   2.456       .  S
Cd6           O7   2.470       .  S
Cd6          O10   2.481       .  S
Cd6           O8   2.447       .  S
C9           O13   1.266       .  A
C9          C222   1.487       .  S
O14         C263   1.267   1_554  A
O14         Cd19   2.460       .  S
C15          O24   1.262   1_545  A
C15          O20   1.266       .  A
C15         C149   1.482       .  S
O16          C22   1.267   1_565  A
O16        Cd265   2.461   1_565  S
C17          O25   1.266       .  A
C17         O260   1.267       .  A
C17         C180   1.491       .  S
C18          O21   1.264       .  A
C18         O269   1.266   1_554  A
C18         C163   1.483       .  S
Cd19         O24   2.450   1_545  S
Cd19         O20   2.481       .  S
Cd19         O21   2.460   1_545  S
Cd19        O262   2.461   1_544  S
Cd19        O272   2.460   1_554  S
Cd19        O271   2.461   1_554  S
Cd19        O269   2.459   1_544  S
C22          O26   1.266       .  A
C22         C138   1.483       .  S
O23         C264   1.266       .  A
O23        Cd265   2.459   1_565  S
O25        Cd265   2.461       .  S
O26        Cd265   2.460       .  S
O27          C30   1.266   1_655  A
O27         Cd32   2.487   1_655  S
C28          O37   1.266       .  A
C28          O33   1.268       .  A
C28         C177   1.491       .  S
O29          C35   1.266       .  A
O29         Cd32   2.469       .  S
C30          O38   1.262       .  A
C30         C107   1.484       .  S
C31          O36   1.267       .  A
C31          O34   1.266   1_455  A
C31         C367   1.484       .  S
Cd32         O39   2.455       .  S
Cd32         O38   2.454       .  S
Cd32         O37   2.458   1_455  S
Cd32         O33   2.459   1_455  S
Cd32         O36   2.464       .  S
Cd32         O34   2.460   1_455  S
C35          O39   1.263       .  A
C35         C219   1.497       .  S
O40          C43   1.265       .  A
O40         Cd45   2.445   1_565  S
C41          O50   1.264       .  A
C41          O46   1.266   1_545  A
C41         C135   1.495       .  S
O42          C48   1.266       .  A
O42         Cd45   2.479       .  S
C43          O51   1.265       .  A
C43          C96   1.479       .  S
C44          O49   1.267       .  A
C44          O47   1.266       .  A
C44         C233   1.490       .  S
Cd45         O52   2.452   1_545  S
Cd45         O51   2.468   1_545  S
Cd45         O50   2.451       .  S
Cd45         O46   2.468   1_545  S
Cd45         O49   2.451       .  S
Cd45         O47   2.460       .  S
C48          O52   1.262   1_545  A
C48         C152   1.489       .  S
O53          C56   1.266       .  A
O53         Cd58   2.437       .  S
C54          O63   1.264       .  A
C54          O59   1.266       .  A
C54         C205   1.487       .  S
O55          C61   1.267       .  A
O55         Cd58   2.485       .  S
C56          O64   1.266       .  A
C56         C166   1.481       .  S
C57          O62   1.267       .  A
C57          O60   1.265       .  A
C57          C79   1.490       .  S
Cd58         O65   2.444       .  S
Cd58         O64   2.471       .  S
Cd58         O63   2.456       .  S
Cd58         O59   2.469       .  S
Cd58         O62   2.466       .  S
Cd58         O60   2.453       .  S
C61          O65   1.262       .  A
C61         C440   1.496   1_554  S
O66          C69   1.266       .  A
O66         Cd71   2.449       .  S
C67          O76   1.264   1_455  A
C67          O72   1.266       .  A
C67         C124   1.493       .  S
O68          C74   1.266   1_655  A
O68         Cd71   2.475   1_655  S
C69          O77   1.265       .  A
C69          C93   1.484       .  S
C70          O75   1.266       .  A
C70          O73   1.266       .  A
C70          C82   1.493       .  S
Cd71         O78   2.454       .  S
Cd71         O77   2.463       .  S
Cd71         O76   2.453   1_455  S
Cd71         O72   2.471       .  S
Cd71         O75   2.452   1_455  S
Cd71         O73   2.467   1_455  S
C74          O78   1.263       .  A
C74         C110   1.489       .  S
C79          C80   1.413       .  A
C79          C84   1.416       .  A
C80          C81   1.412       .  A
C80          C85   1.452       .  S
C81          C82   1.418       .  A
C81          C88   1.452       .  S
C82          C83   1.416       .  A
C83          C84   1.411       .  A
C83          C86   1.452       .  S
C84          C87   1.452       .  S
C85          N92   1.157       .  T
C86          N91   1.157       .  T
C87          N89   1.158       .  T
C88          N90   1.158       .  T
C93          C94   1.414       .  A
C93          C98   1.415       .  A
C94          C95   1.407       .  A
C94          C99   1.452       .  S
C95          C96   1.411       .  A
C95         C102   1.453       .  S
C96          C97   1.411       .  A
C97          C98   1.413       .  A
C97         C100   1.451       .  S
C98         C101   1.451       .  S
C99         N106   1.157       .  T
C100        N105   1.157       .  T
C101        N103   1.157       .  T
C102        N104   1.157       .  T
C107        C108   1.413       .  A
C107        C112   1.411       .  A
C108        C109   1.411       .  A
C108        C113   1.452       .  S
C109        C110   1.415       .  A
C109        C116   1.452       .  S
C110        C111   1.416       .  A
C111        C112   1.411       .  A
C111        C114   1.452       .  S
C112        C115   1.450       .  S
C113        N120   1.157   1_455  T
C114        N119   1.157       .  T
C115        N117   1.157       .  T
C116        N118   1.157       .  T
C121        C277   1.484   1_554  S
C121        C122   1.411   1_455  A
C121        C126   1.412       .  A
C122        C123   1.411       .  A
C122        C127   1.450       .  S
C123        C124   1.418   1_655  A
C123        C130   1.452       .  S
C124        C125   1.417       .  A
C125        C126   1.412       .  A
C125        C128   1.451       .  S
C126        C375   1.452   1_554  S
C127        N134   1.157       .  T
C128        N133   1.157       .  T
C129        C372   1.452       .  S
C129        N131   1.157       .  T
C130        N132   1.158       .  T
C135        C136   1.418   1_545  A
C135        C140   1.420       .  A
C136        C137   1.412       .  A
C136        C141   1.451       .  S
C137        C138   1.411   1_565  A
C137        C144   1.452       .  S
C138        C139   1.410       .  A
C139        C140   1.411       .  A
C139        C142   1.451       .  S
C140        C143   1.452       .  S
C141        N148   1.157       .  T
C142        N147   1.157       .  T
C143        N145   1.157       .  T
C144        N146   1.157       .  T
C149        C150   1.413       .  A
C149        C154   1.411       .  A
C150        C151   1.411       .  A
C150        C155   1.452       .  S
C151        C152   1.415       .  A
C151        C158   1.451       .  S
C152        C153   1.417       .  A
C153        C154   1.411       .  A
C153        C156   1.452   1_545  S
C154        C157   1.452   1_545  S
C155        N162   1.157       .  T
C156        N161   1.157       .  T
C157        N159   1.157       .  T
C158        N160   1.157       .  T
C163        C164   1.415       .  A
C163        C168   1.413       .  A
C164        C165   1.413       .  A
C164        C169   1.451       .  S
C165        C166   1.412       .  A
C165        C172   1.451       .  S
C166        C167   1.413       .  A
C167        C168   1.407       .  A
C167        C170   1.453       .  S
C168        C171   1.452       .  S
C169        N176   1.157       .  T
C170        N175   1.157       .  T
C171        N173   1.157       .  T
C172        N174   1.157       .  T
C177        C178   1.416       .  A
C177        C182   1.414       .  A
C178        C179   1.412       .  A
C178        C429   1.451       .  S
C179        C180   1.414       .  A
C179        C432   1.452       .  S
C180        C181   1.416       .  A
C181        C182   1.412       .  A
C181        C184   1.451       .  S
C182        C185   1.452       .  S
C183        C424   1.451   1_554  S
C183        N190   1.157       .  T
C184        N189   1.157       .  T
C185        N187   1.157       .  T
C186        C425   1.452   1_554  S
C186        N188   1.157       .  T
C191        C192   1.412       .  A
C191        C196   1.412       .  A
C192        C193   1.411       .  A
C192        C197   1.451       .  S
C193        C194   1.420       .  A
C193        C446   1.453       .  S
C194        C307   1.496       .  S
C194        C195   1.417       .  A
C195        C196   1.412       .  A
C195        C198   1.451       .  S
C196        C199   1.452       .  S
C197        N204   1.157       .  T
C198        N203   1.157       .  T
C199        N201   1.157       .  T
C200        C439   1.453   1_554  S
C200        N202   1.158       .  T
C205        C206   1.413       .  A
C205        C210   1.413       .  A
C206        C207   1.412       .  A
C206        C211   1.452       .  S
C207        C208   1.418       .  A
C207        C214   1.451       .  S
C208        C209   1.419       .  A
C209        C210   1.411       .  A
C209        C212   1.453       .  S
C210        C213   1.453       .  S
C211        N218   1.157       .  T
C212        N217   1.157       .  T
C213        N215   1.158       .  T
C214        N216   1.157       .  T
C219        C220   1.418       .  A
C219        C224   1.420       .  A
C220        C221   1.412       .  A
C220        C225   1.452       .  S
C221        C222   1.413       .  A
C221        C228   1.451       .  S
C222        C223   1.411       .  A
C223        C224   1.411       .  A
C223        C226   1.453       .  S
C224        C227   1.451       .  S
C225        N232   1.157       .  T
C226        N231   1.157       .  T
C227        N229   1.157       .  T
C228        N230   1.157       .  T
C233        C234   1.414       .  A
C233        C238   1.416       .  A
C234        C235   1.411       .  A
C234        C239   1.452       .  S
C235        C236   1.418       .  A
C235        C242   1.452       .  S
C236        C237   1.415       .  A
C237        C238   1.412       .  A
C237        C240   1.452       .  S
C238        C241   1.452       .  S
C239        N246   1.157       .  T
C240        N245   1.157       .  T
C241        N243   1.158       .  T
C242        N244   1.158       .  T
O247        C250   1.267       .  A
O247       Cd252   2.462       .  S
C248        O257   1.264       .  A
C248        O253   1.266       .  A
C248        C482   1.493       .  S
O249        C255   1.267       .  A
O249       Cd252   2.451       .  S
C250        O258   1.266       .  A
C250        C437   1.486       .  S
C251        O256   1.267       .  A
C251        O254   1.263       .  A
C251        C454   1.495       .  S
Cd252       O259   2.462       .  S
Cd252       O258   2.460       .  S
Cd252       O257   2.456       .  S
Cd252       O253   2.470       .  S
Cd252       O256   2.481       .  S
Cd252       O254   2.447       .  S
C255        O259   1.266       .  A
C255        C468   1.487       .  S
O260       Cd265   2.460       .  S
C261        O270   1.262   1_545  A
C261        O266   1.266       .  A
C261        C395   1.482       .  S
O262        C268   1.267   1_565  A
C263        O271   1.266       .  A
C263        C426   1.491       .  S
C264        O267   1.264       .  A
C264        C409   1.483       .  S
Cd265       O270   2.450   1_545  S
Cd265       O266   2.481       .  S
Cd265       O267   2.460   1_545  S
C268        O272   1.266       .  A
C268        C384   1.483       .  S
O273        C276   1.266   1_655  A
O273       Cd278   2.487   1_655  S
C274        O283   1.266       .  A
C274        O279   1.268       .  A
C274        C423   1.491       .  S
O275        C281   1.266       .  A
O275       Cd278   2.469       .  S
C276        O284   1.262       .  A
C276        C353   1.484       .  S
C277        O282   1.267       .  A
C277        O280   1.266   1_455  A
Cd278       O285   2.455       .  S
Cd278       O284   2.454       .  S
Cd278       O283   2.458   1_455  S
Cd278       O279   2.459   1_455  S
Cd278       O282   2.464       .  S
Cd278       O280   2.460   1_455  S
C281        O285   1.263       .  A
C281        C465   1.497       .  S
O286        C289   1.265       .  A
O286       Cd291   2.445   1_565  S
C287        O296   1.264       .  A
C287        O292   1.266   1_545  A
C287        C381   1.495       .  S
O288        C294   1.266       .  A
O288       Cd291   2.479       .  S
C289        O297   1.265       .  A
C289        C342   1.479       .  S
C290        O295   1.267       .  A
C290        O293   1.266       .  A
C290        C479   1.490       .  S
Cd291       O298   2.452   1_545  S
Cd291       O297   2.468   1_545  S
Cd291       O296   2.451       .  S
Cd291       O292   2.468   1_545  S
Cd291       O295   2.451       .  S
Cd291       O293   2.460       .  S
C294        O298   1.262   1_545  A
C294        C398   1.489       .  S
O299        C302   1.266       .  A
O299       Cd304   2.437       .  S
C300        O309   1.264       .  A
C300        O305   1.266       .  A
C300        C451   1.487       .  S
O301        C307   1.267       .  A
O301       Cd304   2.485       .  S
C302        O310   1.266       .  A
C302        C412   1.481       .  S
C303        O308   1.267       .  A
C303        O306   1.265       .  A
C303        C325   1.490       .  S
Cd304       O311   2.444       .  S
Cd304       O310   2.471       .  S
Cd304       O309   2.456       .  S
Cd304       O305   2.469       .  S
Cd304       O308   2.466       .  S
Cd304       O306   2.453       .  S
C307        O311   1.262       .  A
O312        C315   1.266       .  A
O312       Cd317   2.449       .  S
C313        O322   1.264   1_455  A
C313        O318   1.266       .  A
C313        C370   1.493       .  S
O314        C320   1.266   1_655  A
O314       Cd317   2.475   1_655  S
C315        O323   1.265       .  A
C315        C339   1.484       .  S
C316        O321   1.266       .  A
C316        O319   1.266       .  A
C316        C328   1.493       .  S
Cd317       O324   2.454       .  S
Cd317       O323   2.463       .  S
Cd317       O322   2.453   1_455  S
Cd317       O318   2.471       .  S
Cd317       O321   2.452   1_455  S
Cd317       O319   2.467   1_455  S
C320        O324   1.263       .  A
C320        C356   1.489       .  S
C325        C326   1.413       .  A
C325        C330   1.416       .  A
C326        C327   1.412       .  A
C326        C331   1.452       .  S
C327        C328   1.418       .  A
C327        C334   1.452       .  S
C328        C329   1.416       .  A
C329        C330   1.411       .  A
C329        C332   1.452       .  S
C330        C333   1.452       .  S
C331        N338   1.157       .  T
C332        N337   1.157       .  T
C333        N335   1.158       .  T
C334        N336   1.158       .  T
C339        C340   1.414       .  A
C339        C344   1.415       .  A
C340        C341   1.407       .  A
C340        C345   1.452       .  S
C341        C342   1.411       .  A
C341        C348   1.453       .  S
C342        C343   1.411       .  A
C343        C344   1.413       .  A
C343        C346   1.451       .  S
C344        C347   1.451       .  S
C345        N352   1.157       .  T
C346        N351   1.157       .  T
C347        N349   1.157       .  T
C348        N350   1.157       .  T
C353        C354   1.413       .  A
C353        C358   1.411       .  A
C354        C355   1.411       .  A
C354        C359   1.452       .  S
C355        C356   1.415       .  A
C355        C362   1.452       .  S
C356        C357   1.416       .  A
C357        C358   1.411       .  A
C357        C360   1.452       .  S
C358        C361   1.450       .  S
C359        N366   1.157   1_455  T
C360        N365   1.157       .  T
C361        N363   1.157       .  T
C362        N364   1.157       .  T
C367        C368   1.411   1_455  A
C367        C372   1.412       .  A
C368        C369   1.411       .  A
C368        C373   1.450       .  S
C369        C370   1.418   1_655  A
C369        C376   1.452       .  S
C370        C371   1.417       .  A
C371        C372   1.412       .  A
C371        C374   1.451       .  S
C373        N380   1.157       .  T
C374        N379   1.157       .  T
C375        N377   1.157       .  T
C376        N378   1.158       .  T
C381        C382   1.418   1_545  A
C381        C386   1.420       .  A
C382        C383   1.412       .  A
C382        C387   1.451       .  S
C383        C384   1.411   1_565  A
C383        C390   1.452       .  S
C384        C385   1.410       .  A
C385        C386   1.411       .  A
C385        C388   1.451       .  S
C386        C389   1.452       .  S
C387        N394   1.157       .  T
C388        N393   1.157       .  T
C389        N391   1.157       .  T
C390        N392   1.157       .  T
C395        C396   1.413       .  A
C395        C400   1.411       .  A
C396        C397   1.411       .  A
C396        C401   1.452       .  S
C397        C398   1.415       .  A
C397        C404   1.451       .  S
C398        C399   1.417       .  A
C399        C400   1.411       .  A
C399        C402   1.452   1_545  S
C400        C403   1.452   1_545  S
C401        N408   1.157       .  T
C402        N407   1.157       .  T
C403        N405   1.157       .  T
C404        N406   1.157       .  T
C409        C410   1.415       .  A
C409        C414   1.413       .  A
C410        C411   1.413       .  A
C410        C415   1.451       .  S
C411        C412   1.412       .  A
C411        C418   1.451       .  S
C412        C413   1.413       .  A
C413        C414   1.407       .  A
C413        C416   1.453       .  S
C414        C417   1.452       .  S
C415        N422   1.157       .  T
C416        N421   1.157       .  T
C417        N419   1.157       .  T
C418        N420   1.157       .  T
C423        C424   1.416       .  A
C423        C428   1.414       .  A
C424        C425   1.412       .  A
C425        C426   1.414       .  A
C426        C427   1.416       .  A
C427        C428   1.412       .  A
C427        C430   1.451       .  S
C428        C431   1.452       .  S
C429        N436   1.157       .  T
C430        N435   1.157       .  T
C431        N433   1.157       .  T
C432        N434   1.157       .  T
C437        C438   1.412       .  A
C437        C442   1.412       .  A
C438        C439   1.411       .  A
C438        C443   1.451       .  S
C439        C440   1.420       .  A
C440        C441   1.417       .  A
C441        C442   1.412       .  A
C441        C444   1.451       .  S
C442        C445   1.452       .  S
C443        N450   1.157       .  T
C444        N449   1.157       .  T
C445        N447   1.157       .  T
C446        N448   1.158       .  T
C451        C452   1.413       .  A
C451        C456   1.413       .  A
C452        C453   1.412       .  A
C452        C457   1.452       .  S
C453        C454   1.418       .  A
C453        C460   1.451       .  S
C454        C455   1.419       .  A
C455        C456   1.411       .  A
C455        C458   1.453       .  S
C456        C459   1.453       .  S
C457        N464   1.157       .  T
C458        N463   1.157       .  T
C459        N461   1.158       .  T
C460        N462   1.157       .  T
C465        C466   1.418       .  A
C465        C470   1.420       .  A
C466        C467   1.412       .  A
C466        C471   1.452       .  S
C467        C468   1.413       .  A
C467        C474   1.451       .  S
C468        C469   1.411       .  A
C469        C470   1.411       .  A
C469        C472   1.453       .  S
C470        C473   1.451       .  S
C471        N478   1.157       .  T
C472        N477   1.157       .  T
C473        N475   1.157       .  T
C474        N476   1.157       .  T
C479        C480   1.414       .  A
C479        C484   1.416       .  A
C480        C481   1.411       .  A
C480        C485   1.452       .  S
C481        C482   1.418       .  A
C481        C488   1.452       .  S
C482        C483   1.415       .  A
C483        C484   1.412       .  A
C483        C486   1.452       .  S
C484        C487   1.452       .  S
C485        N492   1.157       .  T
C486        N491   1.157       .  T
C487        N489   1.158       .  T
C488        N490   1.158       .  T
