geometry optimzed in LAMMPS
_audit_creation_date              2020-12-01 
_audit_creation_method            'lammps2cif' 
_symmetry_space_group_name_H-M    'P1' 
_symmetry_Int_Tables_number       1 
_symmetry_cell_setting            triclinic 
loop_ 
_symmetry_equiv_pos_as_xyz 
  x,y,z 
_cell_length_a                    34.0256533 
_cell_length_b                    33.88480888656267 
_cell_length_c                    25.04874933375619 
_cell_angle_alpha                 91.18918634594883 
_cell_angle_beta                  89.91433497835779 
_cell_angle_gamma                 90.22693095145928 
loop_ 
_atom_site_label 
_atom_site_type_symbol 
_atom_site_fract_x 
_atom_site_fract_y 
_atom_site_fract_z 
_atom_site_charge 
O1          O  0.42053695  0.85788950  0.80577743    -0.57000
C2          C  0.33864801  0.90020147  0.88746671     0.75600
O3          O  0.38532451  0.84406674  0.97374702    -0.58100
C4          C  0.44131922  0.82731943  0.81131820     0.75600
C5          C  0.46093920  0.94735808  0.93817529     0.78000
Cd6        Cd  0.41902788  0.87710663  0.90173419     1.37500
O7          O  0.36643651  0.92463423  0.88150424    -0.57000
O8          O  0.46409583  0.93476141  0.89036613    -0.55800
C9          C  0.41360163  0.82203895  0.98629315     0.78000
O10         O  0.44114260  0.92580834  0.96882586    -0.58200
O11         O  0.34865304  0.86483834  0.89473640    -0.56600
O12         O  0.45553432  0.82249526  0.85727277    -0.56600
O13         O  0.44605153  0.82832926  0.96290453    -0.55800
O14         O  0.33803644  0.66269164  0.05708056    -0.57000
C15         C  0.29881183  0.56539577  0.14205587     0.75600
O16         O  0.30279579  0.56173103  0.98439414    -0.58100
C17         C  0.37406728  0.67090590  0.06338308     0.75600
C18         C  0.41838390  0.55294555  0.01699946     0.78000
Cd19       Cd  0.34700241  0.59061368  0.05273165     1.37500
O20         O  0.32755406  0.58895006  0.14763487    -0.57000
O21         O  0.40927375  0.55482185  0.06603172    -0.55800
C22         C  0.29206123  0.59505907  0.96765087     0.78000
O23         O  0.39219839  0.56400394  0.98491655    -0.58200
O24         O  0.29482576  0.55006248  0.09600687    -0.56600
O25         O  0.39670468  0.64202247  0.07047850    -0.56600
O26         O  0.30934768  0.62502147  0.98760374    -0.55800
O27         O  0.08068630  0.70276671  0.82138316    -0.57000
C28         C  0.14379579  0.63499323  0.88769468     0.75600
O29         O  0.03556234  0.71385430  0.95368821    -0.58100
C30         C  0.04617222  0.71104774  0.80729346     0.75600
C31         C  0.02617754  0.59183006  0.93487031     0.78000
Cd32       Cd  0.06476308  0.66178696  0.89743990     1.37500
O33         O  0.11602627  0.61313189  0.87068485    -0.57000
O34         O  0.03441521  0.59548826  0.88578656    -0.55800
C35         C  0.06586715  0.71935448  0.98236217     0.78000
O36         O  0.03203671  0.62199881  0.96430195    -0.58200
O37         O  0.13445495  0.66863690  0.90608482    -0.56600
O38         O  0.01885384  0.69273800  0.83092329    -0.56600
O39         O  0.09362221  0.69516882  0.97515324    -0.55800
O40         O  0.13069596  0.88506925  0.07959153    -0.57000
C41         C  0.17673946  0.98358614  0.13725663     0.75600
O42         O  0.17590720  0.97398655  0.97681494    -0.58100
C43         C  0.09914037  0.87503495  0.05613175     0.75600
C44         C  0.06199749  0.99783865  0.01506712     0.78000
Cd45       Cd  0.12976020  0.95426385  0.04857982     1.37500
O46         O  0.14527595  0.96445744  0.14531488    -0.57000
O47         O  0.06616860  0.98760632  0.06308164    -0.55800
C48         C  0.18746728  0.93901878  0.96729817     0.78000
O49         O  0.09120869  0.99184038  0.98467758    -0.58200
O50         O  0.18316148  0.99324440  0.08963036    -0.56600
O51         O  0.08114458  0.90222224  0.03276172    -0.56600
O52         O  0.17053225  0.91221197  0.99309086    -0.55800
O53         O  0.09051687  0.64129618  0.43324306    -0.57000
C54         C  0.18225525  0.57002489  0.31021474     0.75600
O55         O  0.17815118  0.55975115  0.45581106    -0.58100
C56         C  0.08713185  0.66038568  0.39079616     0.75600
C57         C  0.06288890  0.53945800  0.43080706     0.78000
Cd58       Cd  0.12797837  0.58680330  0.39706790     1.37500
O59         O  0.18333751  0.60070724  0.33958120    -0.57000
O60         O  0.06351191  0.55429322  0.38471816    -0.55800
C61         C  0.18709086  0.59277334  0.47725921     0.78000
O62         O  0.09448586  0.54180422  0.45722301    -0.58200
O63         O  0.15337018  0.54685503  0.31764307    -0.56600
O64         O  0.10324782  0.64579344  0.34929890    -0.56600
O65         O  0.16609853  0.62190061  0.46483340    -0.55800
O66         O  0.04816743  0.85666859  0.63978479    -0.57000
C67         C  0.12321096  0.89149219  0.55045790     0.75600
O68         O  0.00942411  0.81801895  0.48744120    -0.58100
C69         C  0.02689364  0.82590341  0.64011189     0.75600
C70         C  0.00040340  0.93821516  0.50346437     0.78000
Cd71       Cd  0.04158558  0.86992621  0.54331940     1.37500
O72         O  0.11111736  0.85797441  0.53467456    -0.57000
O73         O  0.99246312  0.92490006  0.54920488    -0.55800
C74         C  0.04050251  0.80998020  0.46142225     0.78000
O75         O  0.02550848  0.91897042  0.47671174    -0.58200
O76         O  0.09708306  0.91548213  0.56673541    -0.56600
O77         O  0.00827800  0.81842769  0.59740810    -0.56600
O78         O  0.07008317  0.83156675  0.47110630    -0.55800
O79         O  0.38693450  0.89748848  0.37857631    -0.57000
C80         C  0.28900682  0.97796199  0.30843935     0.75600
O81         O  0.28817916  0.96853693  0.46714292    -0.58100
C82         C  0.36450850  0.86766570  0.37669136     0.75600
C83         C  0.40296465  0.98668205  0.43909906     0.78000
Cd84       Cd  0.33464569  0.94635234  0.39566627     1.37500
O85         O  0.31802705  0.95540513  0.29959695    -0.57000
O86         O  0.39147181  0.99208527  0.39169566    -0.55800
C87         C  0.27522681  0.93401239  0.47501861     0.78000
O88         O  0.38117024  0.96505361  0.46721712    -0.58200
O89         O  0.28416213  0.98910865  0.35638645    -0.56600
O90         O  0.32805353  0.87488894  0.37679603    -0.56600
O91         O  0.29208162  0.90637629  0.44934820    -0.55800
O92         O  0.42319895  0.68058467  0.64168609    -0.57000
C93         C  0.34062377  0.63210936  0.54748363     0.75600
O94         O  0.44107342  0.71193410  0.47599199    -0.58100
C95         C  0.43995091  0.71361355  0.63534743     0.75600
C96         C  0.46390620  0.59572594  0.51628130     0.78000
Cd97       Cd  0.41832040  0.66458386  0.54372039     1.37500
O98         O  0.34913327  0.66296276  0.57457398    -0.57000
O99         O  0.44979248  0.60099249  0.56267387    -0.55800
C100        C  0.40687418  0.71967755  0.45920660     0.78000
O101        O  0.46167227  0.62483774  0.48568245    -0.58200
O102        O  0.36837323  0.61645541  0.52127608    -0.56600
O103        O  0.45020146  0.72120303  0.58819117    -0.56600
O104        O  0.37902906  0.70020645  0.47942857    -0.55800
O105        O  0.85882040  0.36856816  0.06289553    -0.57000
C106        C  0.94792087  0.33094722  0.15248771     0.75600
O107        O  0.95915080  0.32436058  0.99719100    -0.58100
C108        C  0.85138223  0.40511672  0.06205794     0.75600
C109        C  0.97326090  0.44153190  0.01778970     0.78000
Cd110      Cd  0.93024944  0.37502390  0.05753142     1.37500
O111        O  0.92362891  0.35914893  0.15297530    -0.57000
O112        O  0.97095809  0.43586361  0.06764905    -0.55800
C113        C  0.92680847  0.31544964  0.97497478     0.78000
O114        O  0.95947845  0.41439093  0.98802803    -0.58200
O115        O  0.96809941  0.32700472  0.11033949    -0.56600
O116        O  0.88081568  0.42801943  0.06332786    -0.56600
O117        O  0.89722895  0.33546932  0.98954437    -0.55800
O118        O  0.65420179  0.46239929  0.81212540    -0.57000
C119        C  0.60546135  0.38199684  0.90846491     0.75600
O120        O  0.68206254  0.41780250  0.96126493    -0.58100
C121        C  0.68681937  0.48000046  0.81852815     0.75600
C122        C  0.57181438  0.50607016  0.93691252     0.78000
Cd123      Cd  0.63926413  0.45908173  0.90874066     1.37500
O124        O  0.59880066  0.40799949  0.94410868    -0.57000
O125        O  0.57574283  0.49111958  0.89050049    -0.55800
C126        C  0.69953424  0.44569022  0.98583592     0.78000
O127        O  0.60130953  0.50372345  0.96735904    -0.58200
O128        O  0.62778011  0.39188429  0.87040580    -0.56600
O129        O  0.69475680  0.49171207  0.86551457    -0.56600
O130        O  0.68746290  0.48032491  0.97706411    -0.55800
O131        O  0.63358136  0.17926402  0.06104958    -0.57000
C132        C  0.53759605  0.21430683  0.14762596     0.75600
O133        O  0.53537383  0.21883754  0.99833064    -0.58100
C134        C  0.64309284  0.14345968  0.06532587     0.75600
C135        C  0.52041727  0.09877640  0.01819022     0.78000
Cd136      Cd  0.56278199  0.16822722  0.05513785     1.37500
O137        O  0.56083532  0.18545626  0.15189525    -0.57000
O138        O  0.52327275  0.10770336  0.06734714    -0.55800
C139        C  0.56764427  0.22755395  0.97605165     0.78000
O140        O  0.53424472  0.12380978  0.98638834    -0.58200
O141        O  0.52303267  0.21909449  0.10193660    -0.56600
O142        O  0.61499642  0.11914826  0.06945309    -0.56600
O143        O  0.59666094  0.20569117  0.98607350    -0.55800
O144        O  0.80672528  0.10911607  0.81487161    -0.57000
C145        C  0.88112930  0.17015451  0.88224804     0.75600
O146        O  0.79259024  0.06878578  0.94938499    -0.58100
C147        C  0.79653119  0.07439798  0.80191257     0.75600
C148        C  0.91342068  0.05056684  0.92749306     0.78000
Cd149      Cd  0.84609908  0.09355405  0.89240244     1.37500
O150        O  0.90184811  0.13937618  0.87724752    -0.57000
O151        O  0.90833909  0.05797036  0.87854828    -0.55800
C152        C  0.79040073  0.09968216  0.97851872     0.78000
O153        O  0.88510757  0.05908412  0.95844179    -0.58200
O154        O  0.84453286  0.16492105  0.88731476    -0.56600
O155        O  0.81329965  0.04679770  0.82641370    -0.56600
O156        O  0.81609602  0.12590541  0.97026534    -0.55800
O157        O  0.64688208  0.08795421  0.64384528    -0.57000
C158        C  0.61179212  0.16519097  0.56872541     0.75600
O159        O  0.65609381  0.10942979  0.46875482    -0.58100
C160        C  0.67545923  0.06422405  0.64018757     0.75600
C161        C  0.55412005  0.04457441  0.51689703     0.78000
Cd162      Cd  0.62693190  0.08310171  0.54954409     1.37500
O163        O  0.58738639  0.13927787  0.58352878    -0.57000
O164        O  0.57010229  0.03595701  0.56081450    -0.55800
C165        C  0.68037646  0.08174228  0.46084311     0.78000
O166        O  0.57285143  0.06869874  0.48878127    -0.58200
O167        O  0.64338569  0.15265632  0.54810759    -0.56600
O168        O  0.67856711  0.04558627  0.59609892    -0.56600
O169        O  0.67751292  0.05269707  0.49170180    -0.55800
O170        O  0.85358268  0.10578386  0.35750407    -0.57000
C171        C  0.92626068  0.20926247  0.30773139     0.75600
O172        O  0.93099692  0.20493495  0.45248538    -0.58100
C173        C  0.82380618  0.12606589  0.37073891     0.75600
C174        C  0.93981130  0.08557431  0.42343765     0.78000
Cd175      Cd  0.90140683  0.15619001  0.39016140     1.37500
O176        O  0.89068376  0.20170692  0.31785886    -0.57000
O177        O  0.94130220  0.09581507  0.37500473    -0.55800
C178        C  0.90018895  0.20982273  0.48017355     0.78000
O179        O  0.92299393  0.10920709  0.45571597    -0.58200
O180        O  0.95160209  0.18859724  0.33126890    -0.56600
O181        O  0.83024218  0.16098311  0.38725550    -0.56600
O182        O  0.87153289  0.18742771  0.46857403    -0.55800
O183        O  0.63180437  0.37017288  0.38105899    -0.57000
C184        C  0.53735430  0.32448457  0.32568165     0.75600
O185        O  0.54126934  0.32455378  0.48068207    -0.58100
C186        C  0.64195321  0.40290981  0.40222371     0.75600
C187        C  0.51824735  0.44063786  0.44651626     0.78000
Cd188      Cd  0.56363212  0.37269851  0.41515934     1.37500
O189        O  0.55574004  0.35651051  0.31850867    -0.57000
O190        O  0.52738135  0.43385350  0.39815835    -0.55800
C191        C  0.57518061  0.31679351  0.49821456     0.78000
O192        O  0.52627821  0.41364519  0.47873918    -0.58200
O193        O  0.52760500  0.31740787  0.37318372    -0.56600
O194        O  0.61531516  0.42190433  0.42657449    -0.56600
O195        O  0.60315820  0.33719102  0.47990352    -0.55800
O196        O  0.83458771  0.45066809  0.65748155    -0.57000
C197        C  0.86877443  0.35972698  0.57064178     0.75600
O198        O  0.80392094  0.46920282  0.49532905    -0.58100
C199        C  0.80298486  0.46944129  0.65071194     0.75600
C200        C  0.91780888  0.48372866  0.52468273     0.78000
Cd201      Cd  0.84916119  0.44164189  0.56048942     1.37500
O202        O  0.83371993  0.37183060  0.57254171    -0.57000
O203        O  0.91502091  0.47238978  0.57239725    -0.55800
C204        C  0.79486579  0.43622937  0.47380772     0.78000
O205        O  0.88804411  0.47801783  0.49546569    -0.58200
O206        O  0.89507404  0.38613825  0.56817527    -0.56600
O207        O  0.79543600  0.47857214  0.60329316    -0.56600
O208        O  0.81375463  0.40651652  0.48943855    -0.55800
C209        C  0.68337790  0.41646029  0.40315086     0.00700
C210        C  0.71306538  0.38844821  0.39409642    -0.11200
C211        C  0.75159727  0.39591924  0.41097852     0.02900
C212        C  0.76077741  0.43203098  0.43741319     0.00600
C213        C  0.73263378  0.46221825  0.43820540    -0.11100
C214        C  0.69408581  0.45475519  0.42153423     0.02800
H215        H  0.70564994  0.35941013  0.37798127     0.15800
H216        H  0.73960084  0.49069644  0.45645693     0.15800
C217        C  0.66584485  0.48630134  0.42702967     0.37400
C218        C  0.78030106  0.36508420  0.40354985     0.37300
N219        N  0.64335575  0.51168716  0.43161001    -0.42900
N220        N  0.80318974  0.34024968  0.39751834    -0.42900
C221        C  0.89589925  0.24250079  0.52002281     0.00700
C222        C  0.85804718  0.25068934  0.53974937    -0.11200
C223        C  0.84905026  0.28760273  0.56237824     0.02900
C224        C  0.87847813  0.31717196  0.56560541     0.00600
C225        C  0.91754448  0.30666529  0.55401178    -0.11100
C226        C  0.92651080  0.26968032  0.53138762     0.02800
H227        H  0.83446564  0.22946145  0.53353758     0.15800
H228        H  0.94084240  0.32840867  0.55853821     0.15800
C229        C  0.96693464  0.26161019  0.51752910     0.37400
C230        C  0.80879552  0.29478465  0.57813073     0.37300
N231        N  0.99939616  0.25524731  0.50663862    -0.42900
N232        N  0.77646356  0.30023569  0.59057812    -0.42900
C233        C  0.60250647  0.20774542  0.56994886     0.00700
C234        C  0.56298270  0.21899290  0.56656425    -0.11200
C235        C  0.55281084  0.25647598  0.54882663     0.02900
C236        C  0.58272846  0.28326186  0.53395838     0.00600
C237        C  0.62198091  0.27404679  0.54584944    -0.11100
C238        C  0.63205872  0.23667166  0.56390748     0.02800
H239        H  0.53993170  0.19741127  0.57309458     0.15800
H240        H  0.64527020  0.29493832  0.53729320     0.15800
C241        C  0.67302886  0.22823380  0.57344585     0.37400
C242        C  0.51157804  0.26524648  0.54297162     0.37300
N243        N  0.70580339  0.22145522  0.58131693    -0.42900
N244        N  0.47845763  0.27206468  0.53852311    -0.42900
C245        C  0.78394608  0.10892195  0.37370938     0.00700
C246        C  0.77998653  0.07103410  0.39468745    -0.11200
C247        C  0.74471014  0.05922394  0.41860288     0.02900
C248        C  0.71262662  0.08568146  0.42120067     0.00600
C249        C  0.71493500  0.12082333  0.39234471    -0.11100
C250        C  0.75029146  0.13267190  0.36896034     0.02800
H251        H  0.80559046  0.05221664  0.39755096     0.15800
H252        H  0.69012001  0.14080140  0.39180195     0.15800
C253        C  0.75196815  0.17038919  0.34319849     0.37400
C254        C  0.74368366  0.02133029  0.44390519     0.37300
N255        N  0.75331428  0.20055498  0.32242089    -0.42900
N256        N  0.74289202  0.99095556  0.46418048    -0.42900
C257        C  0.76436076  0.06760113  0.76307035     0.00700
C258        C  0.76934406  0.04222624  0.71870986    -0.11200
C259        C  0.74016060  0.03900748  0.67904045     0.02900
C260        C  0.70484413  0.06102684  0.68411041     0.00600
C261        C  0.69928280  0.08444572  0.73046511    -0.11100
C262        C  0.72850249  0.08797574  0.76944964     0.02800
H263        H  0.79669474  0.02618791  0.71392909     0.15800
H264        H  0.67241201  0.10120698  0.73572870     0.15800
C265        C  0.72083774  0.11256923  0.81616268     0.37400
C266        C  0.74811656  0.01411019  0.63286942     0.37300
N267        N  0.71484938  0.13210014  0.85373116    -0.42900
N268        N  0.75455686  0.99420428  0.59580849    -0.42900
C269        C  0.52995318  0.24211832  0.19300440     0.00700
C270        C  0.53336033  0.22834149  0.24519227    -0.11200
C271        C  0.53330378  0.25449300  0.28922807     0.02900
C272        C  0.53016316  0.29562385  0.28143821     0.00600
C273        C  0.52480080  0.30928740  0.22950896    -0.11100
C274        C  0.52429103  0.28304936  0.18546965     0.02800
H275        H  0.53770558  0.19707847  0.25151632     0.15800
H276        H  0.52237462  0.34075895  0.22311599     0.15800
C277        C  0.52095638  0.29956219  0.13299588     0.37400
C278        C  0.54007957  0.23842609  0.34138355     0.37300
N279        N  0.51828942  0.31320324  0.09119582    -0.42900
N280        N  0.54570676  0.22556246  0.38311794    -0.42900
C281        C  0.68447633  0.13033359  0.06003934     0.00700
C282        C  0.69183305  0.09039126  0.04757604    -0.11200
C283        C  0.72803473  0.07847399  0.02612273     0.02900
C284        C  0.75747571  0.10697768  0.01635174     0.00600
C285        C  0.75204573  0.14566476  0.03627688    -0.11100
C286        C  0.71603875  0.15751575  0.05810816     0.02800
H287        H  0.66840976  0.06877551  0.05087499     0.15800
H288        H  0.77495006  0.16764048  0.03129734     0.15800
C289        C  0.71192398  0.19821472  0.07549328     0.37400
C290        C  0.73337957  0.03720221  0.01265822     0.37300
N291        N  0.70871095  0.23082313  0.08943750    -0.42900
N292        N  0.73767767  0.00405917  0.00226063    -0.42900
C293        C  0.71600990  0.48356791  0.77488273     0.00700
C294        C  0.75607336  0.48180867  0.78837921    -0.11200
C295        C  0.78515073  0.47774340  0.74902403     0.02900
C296        C  0.77457886  0.47784598  0.69452871     0.00600
C297        C  0.73465449  0.48198480  0.68107834    -0.11100
C298        C  0.70539421  0.48365951  0.72046363     0.02800
H299        H  0.76461634  0.48085239  0.83003316     0.15800
H300        H  0.72590618  0.48141449  0.63945300     0.15800
C301        C  0.66480622  0.48369405  0.70368200     0.37400
C302        C  0.82513390  0.47150484  0.76605629     0.37300
N303        N  0.63232990  0.48315359  0.69000090    -0.42900
N304        N  0.85699648  0.46588821  0.78002605    -0.42900
C305        C  0.58990334  0.34158522  0.91382025     0.00700
C306        C  0.61260345  0.30970632  0.89500465    -0.11200
C307        C  0.60456157  0.27123210  0.91148385     0.02900
C308        C  0.57211553  0.26416154  0.94541161     0.00600
C309        C  0.54680585  0.29548539  0.95856553    -0.11100
C310        C  0.55590488  0.33405693  0.94447167     0.02800
H311        H  0.63864715  0.31519736  0.87119579     0.15800
H312        H  0.52159981  0.29049203  0.98413256     0.15800
C313        C  0.53134958  0.36549203  0.96544426     0.37400
C314        C  0.63133588  0.24023177  0.89537207     0.37300
N315        N  0.51215025  0.39074634  0.98297548    -0.42900
N316        N  0.65311467  0.21565238  0.88251532    -0.42900
C317        C  0.94952327  0.30230043  0.19696489     0.00700
C318        C  0.92417535  0.30842437  0.24068813    -0.11200
C319        C  0.91760445  0.27886166  0.27782159     0.02900
C320        C  0.93678358  0.24215531  0.27229527     0.00600
C321        C  0.96468416  0.23694310  0.23160349    -0.11100
C322        C  0.97095781  0.26639869  0.19367934     0.02800
H323        H  0.90795639  0.33581998  0.24478857     0.15800
H324        H  0.98007222  0.20904955  0.22775429     0.15800
C325        C  0.99788690  0.25777607  0.15046883     0.37400
C326        C  0.89100159  0.28686428  0.32165222     0.37300
N327        N  0.01938819  0.25058833  0.11580369    -0.42900
N328        N  0.86993285  0.29274728  0.35717941    -0.42900
C329        C  0.92226434  0.28190547  0.93661419     0.00700
C330        C  0.88746993  0.27960800  0.90659731    -0.11200
C331        C  0.87567742  0.24415661  0.88206114     0.02900
C332        C  0.89865119  0.20998956  0.88812050     0.00600
C333        C  0.93616959  0.21371207  0.91108696    -0.11100
C334        C  0.94826886  0.24942517  0.93519517     0.02800
H335        H  0.86809477  0.30491230  0.90507293     0.15800
H336        H  0.95462047  0.18786526  0.91464514     0.15800
C337        C  0.98588885  0.25061421  0.96181237     0.37400
C338        C  0.83894865  0.24321614  0.85321440     0.37300
N339        N  0.01614582  0.25154579  0.98286358    -0.42900
N340        N  0.80959051  0.24245522  0.82994169    -0.42900
C341        C  0.81048521  0.41943766  0.05583095     0.00700
C342        C  0.77974171  0.39170203  0.05835915    -0.11200
C343        C  0.74200808  0.40073500  0.04044273     0.02900
C344        C  0.73452823  0.43817365  0.01899818     0.00600
C345        C  0.76388889  0.46730827  0.02219214    -0.11100
C346        C  0.80163654  0.45841089  0.04046934     0.02800
H347        H  0.78555030  0.36212112  0.07198361     0.15800
H348        H  0.75824057  0.49643833  0.00683945     0.15800
C349        C  0.83086726  0.48940887  0.03967073     0.37400
C350        C  0.71184914  0.37074158  0.04375644     0.37300
N351        N  0.85395242  0.51457413  0.03899991    -0.42900
N352        N  0.68780166  0.34664517  0.04693341    -0.42900
C353        C  0.47951841  0.55668256  0.49808255     0.00700
C354        C  0.47873300  0.52526690  0.53390440    -0.11200
C355        C  0.48971096  0.48699785  0.51791659     0.02900
C356        C  0.50183225  0.47926878  0.46463470     0.00600
C357        C  0.50214951  0.51052759  0.42867116    -0.11100
C358        C  0.49138992  0.54880816  0.44468716     0.02800
H359        H  0.46911850  0.53043655  0.57474090     0.15800
H360        H  0.51171528  0.50533514  0.38781050     0.15800
C361        C  0.49293666  0.57904626  0.40494085     0.37400
C362        C  0.48809036  0.45653249  0.55737189     0.37300
N363        N  0.49431033  0.60303699  0.37276148    -0.42900
N364        N  0.48682701  0.43226461  0.58918320    -0.42900
C365        C  0.44068298  0.00305279  0.46019011     0.00700
C366        C  0.45866467  0.98471387  0.50378106    -0.11200
C367        C  0.49556927  0.99715290  0.52298327     0.02900
C368        C  0.51522872  0.02896394  0.49874032     0.00600
C369        C  0.49690929  0.04750930  0.45562384    -0.11100
C370        C  0.46027152  0.03497246  0.43628183     0.02800
H371        H  0.44429926  0.95981975  0.52222215     0.15800
H372        H  0.51116891  0.07229843  0.43678791     0.15800
C373        C  0.44340498  0.05604901  0.39239824     0.37400
C374        C  0.51283443  0.97587489  0.56638498     0.37300
N375        N  0.43002988  0.07304014  0.35722025    -0.42900
N376        N  0.52660376  0.95862555  0.60105401    -0.42900
C377        C  0.37945507  0.82658329  0.38041594     0.00700
C378        C  0.35212213  0.79535074  0.37931719    -0.11200
C379        C  0.36179361  0.75831496  0.39921208     0.02900
C380        C  0.39925827  0.75232008  0.42197555     0.00600
C381        C  0.42815335  0.78159290  0.41598257    -0.11100
C382        C  0.41876110  0.81836787  0.39493784     0.02800
H383        H  0.32229315  0.80047990  0.36600331     0.15800
H384        H  0.45752753  0.77691559  0.43131459     0.15800
C385        C  0.44962101  0.84762956  0.39216650     0.37400
C386        C  0.33224059  0.72757400  0.39732141     0.37300
N387        N  0.47450107  0.87091675  0.38975110    -0.42900
N388        N  0.30865171  0.70287880  0.39543180    -0.42900
C389        C  0.95535930  0.04745512  0.44205538     0.00700
C390        C  0.93673933  0.02963194  0.48558755    -0.11200
C391        C  0.94995305  0.99370564  0.50549209     0.02900
C392        C  0.98296707  0.97494573  0.48215772     0.00600
C393        C  0.00111782  0.99253540  0.43786767    -0.11100
C394        C  0.98765681  0.02832835  0.41773044     0.02800
H395        H  0.91134336  0.04366016  0.50393010     0.15800
H396        H  0.02658459  0.97875090  0.41941838     0.15800
C397        C  0.00864823  0.04556607  0.37373965     0.37400
C398        C  0.92844259  0.97664418  0.54910076     0.37300
N399        N  0.02550595  0.05948135  0.33859954    -0.42900
N400        N  0.91097118  0.96305104  0.58392340    -0.42900
C401        C  0.24046615  0.92538802  0.50881321     0.00700
C402        C  0.23164999  0.88554762  0.51772525    -0.11200
C403        C  0.19457871  0.87388765  0.53538684     0.02900
C404        C  0.16529583  0.90258066  0.54570607     0.00600
C405        C  0.17562768  0.94274144  0.54332490    -0.11100
C406        C  0.21279090  0.95439708  0.52477549     0.02800
H407        H  0.25296738  0.86290734  0.50735290     0.15800
H408        H  0.15370946  0.96513644  0.55201674     0.15800
C409        C  0.22034145  0.99604564  0.51897002     0.37400
C410        C  0.18708276  0.83202276  0.53919979     0.37300
N411        N  0.22623600  0.02947250  0.51441613    -0.42900
N412        N  0.18125866  0.79843175  0.54164683    -0.42900
C413        C  0.02621880  0.52332536  0.45431757     0.00700
C414        C  0.99004110  0.53756501  0.43584274    -0.11200
C415        C  0.95457243  0.52695259  0.46021467     0.02900
C416        C  0.95462631  0.50039758  0.50287880     0.00600
C417        C  0.99069210  0.48666721  0.52207154    -0.11100
C418        C  0.02629593  0.49811881  0.49869069     0.02800
H419        H  0.98949845  0.55836687  0.40353647     0.15800
H420        H  0.99107255  0.46625830  0.55485238     0.15800
C421        C  0.06226168  0.48321425  0.52103296     0.37400
C422        C  0.91884724  0.54568965  0.44293793     0.37300
N423        N  0.09101356  0.47140749  0.53933610    -0.42900
N424        N  0.89029632  0.56114342  0.42973080    -0.42900
C425        C  0.22285987  0.59795811  0.51012256     0.00700
C426        C  0.25323022  0.57045045  0.50300672    -0.11200
C427        C  0.29159654  0.57953610  0.51886276     0.02900
C428        C  0.29997159  0.61675971  0.54297627     0.00600
C429        C  0.26868070  0.64199233  0.55638863    -0.11100
C430        C  0.23029295  0.63292091  0.54022608     0.02800
H431        H  0.24778877  0.54305804  0.48104970     0.15800
H432        H  0.27447310  0.67013358  0.57629405     0.15800
C433        C  0.19953283  0.66079128  0.55316591     0.37400
C434        C  0.32190158  0.55087063  0.50703932     0.37300
N435        N  0.17486457  0.68307897  0.56361580    -0.42900
N436        N  0.34620315  0.52800129  0.49734680    -0.42900
C437        C  0.06696311  0.69869284  0.39188252     0.00700
C438        C  0.08703088  0.73185276  0.37330563    -0.11200
C439        C  0.07582283  0.76980386  0.39029537     0.02900
C440        C  0.04399845  0.77455591  0.42631973     0.00600
C441        C  0.02041132  0.74173239  0.43775617    -0.11100
C442        C  0.03182746  0.70385611  0.42109962     0.02800
H443        H  0.11357396  0.72801358  0.34975027     0.15800
H444        H  0.99525987  0.74503198  0.46410472     0.15800
C445        C  0.00835643  0.67049356  0.43712066     0.37400
C446        C  0.09900981  0.80300313  0.37302929     0.37300
N447        N  0.98949794  0.64375817  0.44975849    -0.42900
N448        N  0.11755444  0.82963769  0.35924850    -0.42900
C449        C  0.95116824  0.03527482  0.94872942     0.00700
C450        C  0.95612198  0.03400656  0.00446250    -0.11200
C451        C  0.99200863  0.02321466  0.02722209     0.02900
C452        C  0.02431295  0.01337388  0.99400900     0.00600
C453        C  0.01940550  0.01479108  0.93830776    -0.11100
C454        C  0.98343879  0.02526455  0.91554034     0.02800
H455        H  0.93194373  0.04200194  0.03073934     0.15800
H456        H  0.04357712  0.00673914  0.91204832     0.15800
C457        C  0.98066912  0.02473785  0.85800382     0.37400
C458        C  0.99458988  0.02287525  0.08475925     0.37300
N459        N  0.97850701  0.02413516  0.81188558    -0.42900
N460        N  0.99653891  0.02258743  0.13087723    -0.42900
C461        C  0.20601449  0.99114774  0.18035616     0.00700
C462        C  0.19324777  0.99410886  0.23355971    -0.11200
C463        C  0.22010783  0.99334728  0.27601225     0.02900
C464        C  0.26077697  0.98826181  0.26557236     0.00600
C465        C  0.27370235  0.98792500  0.21234757    -0.11100
C466        C  0.24695703  0.98990756  0.16993163     0.02800
H467        H  0.16200433  0.99550998  0.24209070     0.15800
H468        H  0.30478251  0.98454550  0.20373312     0.15800
C469        C  0.26238129  0.98741347  0.11618490     0.37400
C470        C  0.20457737  0.99491613  0.32971794     0.37300
N471        N  0.27467347  0.98546435  0.07309937    -0.42900
N472        N  0.19201096  0.99628510  0.37268057    -0.42900
C473        C  0.01207569  0.55381609  0.95694262     0.00700
C474        C  0.00180900  0.52292340  0.92139580    -0.11200
C475        C  0.99003397  0.48596224  0.93986748     0.02900
C476        C  0.98895752  0.47885065  0.99549604     0.00600
C477        C  0.99973425  0.50959898  0.03099389    -0.11100
C478        C  0.01089903  0.54674034  0.01253481     0.02800
H479        H  0.00265477  0.52768515  0.87872559     0.15800
H480        H  0.99871085  0.50495254  0.07368238     0.15800
C481        C  0.02105920  0.57668228  0.05207635     0.37400
C482        C  0.97846108  0.45652080  0.90033864     0.37300
N483        N  0.02903945  0.60057020  0.08398070    -0.42900
N484        N  0.96895599  0.43316394  0.86849222    -0.42900
C485        C  0.03887108  0.74177186  0.76687019     0.00700
C486        C  0.00752533  0.73772776  0.73076130    -0.11200
C487        C  0.00169764  0.76539047  0.69030780     0.02900
C488        C  0.02699286  0.79863746  0.68636106     0.00600
C489        C  0.05682430  0.80361101  0.72467698    -0.11100
C490        C  0.06320265  0.77564433  0.76404888     0.02800
H491        H  0.98833316  0.71217734  0.73297580     0.15800
H492        H  0.07651557  0.82879818  0.72274819     0.15800
C493        C  0.09499447  0.78282537  0.80127730     0.37400
C494        C  0.96999229  0.75828826  0.65309273     0.37300
N495        N  0.12054776  0.78864111  0.83089718    -0.42900
N496        N  0.94455801  0.75227578  0.62335714    -0.42900
C497        C  0.08578536  0.83331353  0.05201885     0.00700
C498        C  0.11307916  0.80324151  0.06150595    -0.11200
C499        C  0.10570346  0.76425171  0.04449021     0.02900
C500        C  0.07020101  0.75489882  0.01748673     0.00600
C501        C  0.04090316  0.78381763  0.01502638    -0.11100
C502        C  0.04841027  0.82276669  0.03141690     0.02800
H503        H  0.14150792  0.81060833  0.07859335     0.15800
H504        H  0.01302052  0.77690623  0.99603026     0.15800
C505        C  0.01784102  0.85143649  0.02318904     0.37400
C506        C  0.13618638  0.73537422  0.05241503     0.37300
N507        N  0.99319158  0.87415518  0.01606215    -0.42900
N508        N  0.16070718  0.71238027  0.05887981    -0.42900
C509        C  0.53374022  0.52200579  0.95659676     0.00700
C510        C  0.52600407  0.52100242  0.01169454    -0.11200
C511        C  0.48881799  0.53025367  0.03239219     0.02900
C512        C  0.45800864  0.54069134  0.99756096     0.00600
C513        C  0.46617509  0.54277703  0.94253337    -0.11100
C514        C  0.50350543  0.53386682  0.92197746     0.02800
H515        H  0.54886907  0.51185239  0.03885938     0.15800
H516        H  0.44342751  0.55193392  0.91521596     0.15800
C517        C  0.51015577  0.53843989  0.86548691     0.37400
C518        C  0.48356052  0.52875398  0.08953465     0.37300
N519        N  0.51541822  0.54248659  0.82026741    -0.42900
N520        N  0.47953189  0.52766651  0.13537108    -0.42900
C521        C  0.27042986  0.55873420  0.18653328     0.00700
C522        C  0.28028586  0.57386387  0.23735238    -0.11200
C523        C  0.25253444  0.57616130  0.27848567     0.02900
C524        C  0.21360898  0.56259010  0.26977782     0.00600
C525        C  0.20444812  0.54426906  0.22055439    -0.11100
C526        C  0.23222705  0.54252141  0.17882234     0.02800
H527        H  0.30954568  0.58564205  0.24456805     0.15800
H528        H  0.17485372  0.53331909  0.21359771     0.15800
C529        C  0.21959767  0.52624103  0.12792376     0.37400
C530        C  0.26501245  0.59325205  0.32905594     0.37300
N531        N  0.20902215  0.51324622  0.08730409    -0.42900
N532        N  0.27532538  0.60711735  0.36928873    -0.42900
C533        C  0.25877248  0.60015310  0.93050179     0.00700
C534        C  0.25271361  0.63806357  0.91051474    -0.11200
C535        C  0.21612369  0.64905483  0.89098056     0.02900
C536        C  0.18486553  0.62158884  0.89043282     0.00600
C537        C  0.19240768  0.58215090  0.90293190    -0.11100
C538        C  0.22911271  0.57115798  0.92304415     0.02800
H539        H  0.27566913  0.66027941  0.91407577     0.15800
H540        H  0.16865616  0.56069518  0.90170709     0.15800
C541        C  0.23407330  0.53097289  0.93984015     0.37400
C542        C  0.21079257  0.68944961  0.87508577     0.37300
N543        N  0.23800827  0.49872430  0.95315780    -0.42900
N544        N  0.20637075  0.72182825  0.86262119    -0.42900
C545        C  0.47774684  0.98574064  0.95779491     0.00700
C546        C  0.47199600  0.99677488  0.01175375    -0.11200
C547        C  0.48474865  0.03342923  0.03223259     0.02900
C548        C  0.50379034  0.06043622  0.99841893     0.00600
C549        C  0.50955591  0.04945420  0.94448601    -0.11100
C550        C  0.49703540  0.01266155  0.92408378     0.02800
H551        H  0.45711169  0.97675149  0.03836280     0.15800
H552        H  0.52454175  0.06949260  0.91799550     0.15800
C553        C  0.50457992  0.00369397  0.86842339     0.37400
C554        C  0.47745302  0.04230649  0.08801946     0.37300
N555        N  0.51081161  0.99668973  0.82379770    -0.42900
N556        N  0.47158287  0.04925092  0.13275668    -0.42900
C557        C  0.44669689  0.79799071  0.76690962     0.00700
C558        C  0.44356364  0.81085055  0.71425853    -0.11200
C559        C  0.44298466  0.78399886  0.67101701     0.02900
C560        C  0.44518869  0.74290755  0.67986796     0.00600
C561        C  0.44916293  0.72995217  0.73247985    -0.11100
C562        C  0.45035617  0.75696861  0.77581626     0.02800
H563        H  0.44045063  0.84212109  0.70684936     0.15800
H564        H  0.45065229  0.69856000  0.73987423     0.15800
C565        C  0.45304528  0.74146430  0.82899557     0.37400
C566        C  0.43727496  0.79956761  0.61833693     0.37300
N567        N  0.45524143  0.72895077  0.87153848    -0.42900
N568        N  0.43258714  0.81204683  0.57616642    -0.42900
C569        C  0.29677509  0.91209597  0.89127397     0.00700
C570        C  0.26849597  0.88217119  0.89711315    -0.11200
C571        C  0.23108313  0.89061288  0.91718378     0.02900
C572        C  0.22122072  0.92991994  0.93167306     0.00600
C573        C  0.24753769  0.96038057  0.91894920    -0.11100
C574        C  0.28511913  0.95187510  0.89890772     0.02800
H575        H  0.27645052  0.85157621  0.88963962     0.15800
H576        H  0.24000799  0.99078637  0.92855029     0.15800
C577        C  0.31178373  0.98445416  0.89065332     0.37400
C578        C  0.20447991  0.85791362  0.92541382     0.37300
N579        N  0.33312792  0.01059048  0.88405758    -0.42900
N580        N  0.18322715  0.83174929  0.93234061    -0.42900
C581        C  0.38891723  0.71179999  0.05807992     0.00700
C582        C  0.36268752  0.74326006  0.06605744    -0.11200
C583        C  0.37188269  0.78117001  0.04852778     0.02900
C584        C  0.40779550  0.78787220  0.02155116     0.00600
C585        C  0.43581851  0.75757887  0.01947820    -0.11100
C586        C  0.42670539  0.71971986  0.03707331     0.02800
H587        H  0.33401796  0.73777746  0.08343289     0.15800
H588        H  0.46373306  0.76235574  0.99964902     0.15800
C589        C  0.45523949  0.68894036  0.02723099     0.37400
C590        C  0.34308902  0.81196313  0.05659873     0.37300
N591        N  0.47813960  0.66439747  0.01890802    -0.42900
N592        N  0.32005283  0.83664502  0.06315111    -0.42900
loop_ 
_geom_bond_atom_site_label_1 
_geom_bond_atom_site_label_2 
_geom_bond_distance 
_geom_bond_site_symmetry_2 
_ccdc_geom_bond_type 
O1            C4   1.267       .  A
O1           Cd6   2.478       .  S
C2           O11   1.264       .  A
C2            O7   1.265       .  A
C2          C569   1.485       .  S
O3            C9   1.264       .  A
O3           Cd6   2.427       .  S
C4           O12   1.263       .  A
C4          C557   1.488       .  S
C5           O10   1.263       .  A
C5            O8   1.268       .  A
C5          C545   1.493       .  S
Cd6          O13   2.459       .  S
Cd6          O12   2.477       .  S
Cd6          O11   2.435       .  S
Cd6           O7   2.472       .  S
Cd6          O10   2.448       .  S
Cd6           O8   2.499       .  S
C9           O13   1.269       .  A
C9          C584   1.483   1_556  S
O14          C17   1.265       .  A
O14         Cd19   2.463       .  S
C15          O24   1.262       .  A
C15          O20   1.266       .  A
C15         C521   1.493       .  S
O16          C22   1.268       .  A
O16         Cd19   2.465   1_556  S
C17          O25   1.263       .  A
C17         C581   1.482       .  S
C18          O23   1.264   1_554  A
C18          O21   1.267       .  A
C18         C512   1.490   1_554  S
Cd19         O26   2.400   1_554  S
Cd19         O25   2.457       .  S
Cd19         O24   2.500       .  S
Cd19         O20   2.468       .  S
Cd19         O23   2.450   1_554  S
Cd19         O21   2.472       .  S
C22          O26   1.266       .  A
C22         C533   1.480       .  S
O27          C30   1.261       .  A
O27         Cd32   2.440       .  S
C28          O37   1.262       .  A
C28          O33   1.267       .  A
C28         C536   1.473       .  S
O29          C35   1.268       .  A
O29         Cd32   2.448       .  S
C30          O38   1.268       .  A
C30         C485   1.489       .  S
C31          O36   1.263       .  A
C31          O34   1.269       .  A
C31         C473   1.490       .  S
Cd32         O39   2.437       .  S
Cd32         O38   2.532       .  S
Cd32         O37   2.391       .  S
Cd32         O33   2.487       .  S
Cd32         O36   2.437       .  S
Cd32         O34   2.481       .  S
C35          O39   1.263       .  A
C35         C500   1.484   1_556  S
O40          C43   1.267       .  A
O40         Cd45   2.486       .  S
C41          O50   1.262       .  A
C41          O46   1.267       .  A
C41         C461   1.488       .  S
O42          C48   1.268       .  A
O42         Cd45   2.485   1_556  S
C43          O51   1.263       .  A
C43         C497   1.485       .  S
C44          O49   1.266   1_554  A
C44          O47   1.267       .  A
C44         C452   1.489   1_564  S
Cd45         O52   2.411   1_554  S
Cd45         O51   2.440       .  S
Cd45         O50   2.456       .  S
Cd45         O46   2.497       .  S
Cd45         O49   2.451   1_554  S
Cd45         O47   2.468       .  S
C48          O52   1.262       .  A
C48         C572   1.483       .  S
O53          C56   1.262       .  A
O53         Cd58   2.409       .  S
C54          O63   1.271       .  A
C54          O59   1.262       .  A
C54         C524   1.489       .  S
O55          C61   1.267       .  A
O55         Cd58   2.449       .  S
C56          O64   1.267       .  A
C56         C437   1.470       .  S
C57          O62   1.265       .  A
C57          O60   1.269       .  A
C57         C413   1.486       .  S
Cd58         O65   2.427       .  S
Cd58         O64   2.500       .  S
Cd58         O63   2.536       .  S
Cd58         O59   2.420       .  S
Cd58         O62   2.443       .  S
Cd58         O60   2.468       .  S
C61          O65   1.265       .  A
C61         C425   1.478       .  S
O66          C69   1.267       .  A
O66         Cd71   2.478       .  S
C67          O76   1.268       .  A
C67          O72   1.262       .  A
C67         C404   1.484       .  S
O68          C74   1.269       .  A
O68         Cd71   2.477       .  S
C69          O77   1.265       .  A
C69         C488   1.497       .  S
C70          O75   1.260       .  A
C70          O73   1.268   1_455  A
C70         C392   1.490   1_455  S
Cd71         O78   2.410       .  S
Cd71         O77   2.499       .  S
Cd71         O76   2.497       .  S
Cd71         O72   2.411       .  S
Cd71         O75   2.443       .  S
Cd71         O73   2.510   1_455  S
C74          O78   1.263       .  A
C74         C440   1.478       .  S
O79          C82   1.264       .  A
O79         Cd84   2.466       .  S
C80          O89   1.262       .  A
C80          O85   1.268       .  A
C80         C464   1.490       .  S
O81          C87   1.268       .  A
O81         Cd84   2.493       .  S
C82          O90   1.265       .  A
C82         C377   1.489       .  S
C83          O88   1.264       .  A
C83          O86   1.268       .  A
C83         C365   1.489   1_565  S
Cd84         O91   2.407       .  S
Cd84         O90   2.467       .  S
Cd84         O89   2.470       .  S
Cd84         O85   2.498       .  S
Cd84         O88   2.464       .  S
Cd84         O86   2.476       .  S
C87          O91   1.264       .  A
C87         C401   1.485       .  S
O92          C95   1.267       .  A
O92         Cd97   2.508       .  S
C93         O102   1.262       .  A
C93          O98   1.267       .  A
C93         C428   1.479       .  S
O94         C100   1.268       .  A
O94         Cd97   2.480       .  S
C95         O103   1.262       .  A
C95         C560   1.488       .  S
C96         O101   1.264       .  A
C96          O99   1.266       .  A
C96         C353   1.490       .  S
Cd97        O104   2.437       .  S
Cd97        O103   2.449       .  S
Cd97        O102   2.410       .  S
Cd97         O98   2.477       .  S
Cd97        O101   2.456       .  S
Cd97         O99   2.465       .  S
C100        O104   1.264       .  A
C100        C380   1.485       .  S
O105        C108   1.266       .  A
O105       Cd110   2.443       .  S
C106        O115   1.264       .  A
C106        O111   1.266       .  A
C106        C317   1.494       .  S
O107        C113   1.267       .  A
O107       Cd110   2.470   1_556  S
C108        O116   1.265       .  A
C108        C341   1.485       .  S
C109        O114   1.261   1_554  A
C109        O112   1.270       .  A
C109        C476   1.490   1_554  S
Cd110       O117   2.420   1_554  S
Cd110       O116   2.467       .  S
Cd110       O115   2.483       .  S
Cd110       O111   2.471       .  S
Cd110       O114   2.425   1_554  S
Cd110       O112   2.488       .  S
C113        O117   1.265       .  A
C113        C329   1.481       .  S
O118        C121   1.267       .  A
O118       Cd123   2.477       .  S
C119        O128   1.268       .  A
C119        O124   1.262       .  A
C119        C305   1.475       .  S
O120        C126   1.264       .  A
O120       Cd123   2.430       .  S
C121        O129   1.263       .  A
C121        C293   1.482       .  S
C122        O127   1.265       .  A
C122        O125   1.266       .  A
C122        C509   1.485       .  S
Cd123       O130   2.467       .  S
Cd123       O129   2.447       .  S
Cd123       O128   2.482       .  S
Cd123       O124   2.391       .  S
Cd123       O127   2.456       .  S
Cd123       O125   2.470       .  S
C126        O130   1.268       .  A
C126        C344   1.479   1_556  S
O131        C134   1.264       .  A
O131       Cd136   2.441       .  S
C132        O141   1.262       .  A
C132        O137   1.266       .  A
C132        C269   1.485       .  S
O133        C139   1.268       .  A
O133       Cd136   2.440   1_556  S
C134        O142   1.265       .  A
C134        C281   1.483       .  S
C135        O140   1.265   1_554  A
C135        O138   1.266       .  A
C135        C548   1.490   1_554  S
Cd136       O143   2.451   1_554  S
Cd136       O142   2.470       .  S
Cd136       O141   2.471       .  S
Cd136       O137   2.482       .  S
Cd136       O140   2.462   1_554  S
Cd136       O138   2.472       .  S
C139        O143   1.265       .  A
C139        C308   1.479       .  S
O144        C147   1.261       .  A
O144       Cd149   2.429       .  S
C145        O154   1.264       .  A
C145        O150   1.265       .  A
C145        C332   1.478       .  S
O146        C152   1.266       .  A
O146       Cd149   2.467       .  S
C147        O155   1.267       .  A
C147        C257   1.480       .  S
C148        O153   1.266       .  A
C148        O151   1.269       .  A
C148        C449   1.490       .  S
Cd149       O156   2.442       .  S
Cd149       O155   2.524       .  S
Cd149       O154   2.425       .  S
Cd149       O150   2.480       .  S
Cd149       O153   2.442       .  S
Cd149       O151   2.462       .  S
C152        O156   1.264       .  A
C152        C284   1.484   1_556  S
O157        C160   1.266       .  A
O157       Cd162   2.461       .  S
C158        O167   1.263       .  A
C158        O163   1.267       .  A
C158        C233   1.477       .  S
O159        C165   1.265       .  A
O159       Cd162   2.437       .  S
C160        O168   1.265       .  A
C160        C260   1.494       .  S
C161        O166   1.260       .  A
C161        O164   1.268       .  A
C161        C368   1.491       .  S
Cd162       O169   2.463       .  S
Cd162       O168   2.480       .  S
Cd162       O167   2.421       .  S
Cd162       O163   2.471       .  S
Cd162       O166   2.431       .  S
Cd162       O164   2.523       .  S
C165        O169   1.267       .  A
C165        C248   1.486       .  S
O170        C173   1.266       .  A
O170       Cd175   2.482       .  S
C171        O180   1.267       .  A
C171        O176   1.263       .  A
C171        C320   1.482       .  S
O172        C178   1.266       .  A
O172       Cd175   2.462       .  S
C173        O181   1.264       .  A
C173        C245   1.476       .  S
C174        O179   1.264       .  A
C174        O177   1.270       .  A
C174        C389   1.482       .  S
Cd175       O182   2.435       .  S
Cd175       O181   2.429       .  S
Cd175       O180   2.519       .  S
Cd175       O176   2.432       .  S
Cd175       O179   2.427       .  S
Cd175       O177   2.482       .  S
C178        O182   1.264       .  A
C178        C221   1.483       .  S
O183        C186   1.266       .  A
O183       Cd188   2.472       .  S
C184        O193   1.262       .  A
C184        O189   1.266       .  A
C184        C272   1.483       .  S
O185        C191   1.266       .  A
O185       Cd188   2.456       .  S
C186        O194   1.263       .  A
C186        C209   1.481       .  S
C187        O192   1.263       .  A
C187        O190   1.267       .  A
C187        C356   1.487       .  S
Cd188       O195   2.447       .  S
Cd188       O194   2.432       .  S
Cd188       O193   2.454       .  S
Cd188       O189   2.486       .  S
Cd188       O192   2.448       .  S
Cd188       O190   2.461       .  S
C191        O195   1.265       .  A
C191        C236   1.485       .  S
O196        C199   1.265       .  A
O196       Cd201   2.492       .  S
C197        O206   1.265       .  A
C197        O202   1.263       .  A
C197        C224   1.483       .  S
O198        C204   1.268       .  A
O198       Cd201   2.447       .  S
C199        O207   1.261       .  A
C199        C296   1.485       .  S
C200        O205   1.262       .  A
C200        O203   1.266       .  A
C200        C416   1.480       .  S
Cd201       O208   2.438       .  S
Cd201       O207   2.452       .  S
Cd201       O206   2.460       .  S
Cd201       O202   2.446       .  S
Cd201       O205   2.447       .  S
Cd201       O203   2.483       .  S
C204        O208   1.266       .  A
C204        C212   1.481       .  S
C209        C210   1.404       .  A
C209        C214   1.414       .  A
C210        C211   1.399       .  A
C210        H215   1.085       .  S
C211        C212   1.413       .  A
C211        C218   1.442       .  S
C212        C213   1.404       .  A
C213        C214   1.398       .  A
C213        H216   1.085       .  S
C214        C217   1.444       .  S
C217        N219   1.157       .  T
C218        N220   1.156       .  T
C221        C222   1.405       .  A
C221        C226   1.413       .  A
C222        C223   1.397       .  A
C222        H227   1.085       .  S
C223        C224   1.415       .  A
C223        C230   1.445       .  S
C224        C225   1.406       .  A
C225        C226   1.399       .  A
C225        H228   1.085       .  S
C226        C229   1.444       .  S
C229        N231   1.157       .  T
C230        N232   1.157       .  T
C233        C234   1.402       .  A
C233        C238   1.412       .  A
C234        C235   1.399       .  A
C234        H239   1.085       .  S
C235        C236   1.416       .  A
C235        C242   1.444       .  S
C236        C237   1.407       .  A
C237        C238   1.398       .  A
C237        H240   1.085       .  S
C238        C241   1.445       .  S
C241        N243   1.158       .  T
C242        N244   1.157       .  T
C245        C246   1.403       .  A
C245        C250   1.409       .  A
C246        C247   1.401       .  A
C246        H251   1.085       .  S
C247        C248   1.416       .  A
C247        C254   1.444       .  S
C248        C249   1.408       .  A
C249        C250   1.398       .  A
C249        H252   1.085       .  S
C250        C253   1.445       .  S
C253        N255   1.157       .  T
C254        N256   1.157   1_545  T
C257        C258   1.401       .  A
C257        C262   1.411       .  A
C258        C259   1.408       .  A
C258        H263   1.085       .  S
C259        C260   1.421       .  A
C259        C266   1.443       .  S
C260        C261   1.406       .  A
C261        C262   1.398       .  A
C261        H264   1.085       .  S
C262        C265   1.446       .  S
C265        N267   1.157       .  T
C266        N268   1.157   1_545  T
C269        C270   1.402       .  A
C269        C274   1.418       .  A
C270        C271   1.400       .  A
C270        H275   1.085       .  S
C271        C272   1.416       .  A
C271        C278   1.445       .  S
C272        C273   1.402       .  A
C273        C274   1.402       .  A
C273        H276   1.085       .  S
C274        C277   1.444       .  S
C277        N279   1.157       .  T
C278        N280   1.157       .  T
C281        C282   1.406       .  A
C281        C286   1.413       .  A
C282        C283   1.401       .  A
C282        H287   1.085       .  S
C283        C284   1.413       .  A
C283        C290   1.444       .  S
C284        C285   1.406       .  A
C285        C286   1.398       .  A
C285        H288   1.085       .  S
C286        C289   1.445       .  S
C289        N291   1.157       .  T
C290        N292   1.157       .  T
C293        C294   1.407       .  A
C293        C298   1.411       .  A
C294        C295   1.401       .  A
C294        H299   1.085       .  S
C295        C296   1.412       .  A
C295        C302   1.444       .  S
C296        C297   1.408       .  A
C297        C298   1.401       .  A
C297        H300   1.085       .  S
C298        C301   1.444       .  S
C301        N303   1.157       .  T
C302        N304   1.157       .  T
C305        C306   1.404       .  A
C305        C310   1.413       .  A
C306        C307   1.401       .  A
C306        H311   1.085       .  S
C307        C308   1.415       .  A
C307        C314   1.444       .  S
C308        C309   1.403       .  A
C309        C310   1.394       .  A
C309        H312   1.084       .  S
C310        C313   1.446       .  S
C313        N315   1.158       .  T
C314        N316   1.157       .  T
C317        C318   1.406       .  A
C317        C322   1.422       .  A
C318        C319   1.398       .  A
C318        H323   1.085       .  S
C319        C320   1.411       .  A
C319        C326   1.444       .  S
C320        C321   1.401       .  A
C321        C322   1.408       .  A
C321        H324   1.085       .  S
C322        C325   1.443       .  S
C325        N327   1.157   1_655  T
C326        N328   1.156       .  T
C329        C330   1.404       .  A
C329        C334   1.415       .  A
C330        C331   1.396       .  A
C330        H335   1.085       .  S
C331        C332   1.410       .  A
C331        C338   1.444       .  S
C332        C333   1.405       .  A
C333        C334   1.402       .  A
C333        H336   1.085       .  S
C334        C337   1.444       .  S
C337        N339   1.157   1_655  T
C338        N340   1.157       .  T
C341        C342   1.406       .  A
C341        C346   1.417       .  A
C342        C343   1.398       .  A
C342        H347   1.085       .  S
C343        C344   1.412       .  A
C343        C350   1.445       .  S
C344        C345   1.403       .  A
C345        C346   1.400       .  A
C345        H348   1.085       .  S
C346        C349   1.444       .  S
C349        N351   1.157       .  T
C350        N352   1.157       .  T
C353        C354   1.407       .  A
C353        C358   1.417       .  A
C354        C355   1.401       .  A
C354        H359   1.084       .  S
C355        C356   1.416       .  A
C355        C362   1.445       .  S
C356        C357   1.405       .  A
C357        C358   1.400       .  A
C357        H360   1.085       .  S
C358        C361   1.444       .  S
C361        N363   1.157       .  T
C362        N364   1.157       .  T
C365        C366   1.409   1_545  A
C365        C370   1.412       .  A
C366        C367   1.405       .  A
C366        H371   1.084       .  S
C367        C368   1.414   1_565  A
C367        C374   1.444       .  S
C368        C369   1.408       .  A
C369        C370   1.399       .  A
C369        H372   1.084       .  S
C370        C373   1.444       .  S
C373        N375   1.157       .  T
C374        N376   1.157       .  T
C377        C378   1.406       .  A
C377        C382   1.417       .  A
C378        C379   1.400       .  A
C378        H383   1.085       .  S
C379        C380   1.414       .  A
C379        C386   1.445       .  S
C380        C381   1.404       .  A
C381        C382   1.401       .  A
C381        H384   1.085       .  S
C382        C385   1.444       .  S
C385        N387   1.157       .  T
C386        N388   1.158       .  T
C389        C390   1.406       .  A
C389        C394   1.409       .  A
C390        C391   1.401   1_545  A
C390        H395   1.085       .  S
C391        C392   1.413       .  A
C391        C398   1.443       .  S
C392        C393   1.411   1_655  A
C393        C394   1.402   1_465  A
C393        H396   1.084       .  S
C394        C397   1.445   1_655  S
C397        N399   1.157       .  T
C398        N400   1.157       .  T
C401        C402   1.404       .  A
C401        C406   1.415       .  A
C402        C403   1.394       .  A
C402        H407   1.085       .  S
C403        C404   1.415       .  A
C403        C410   1.445       .  S
C404        C405   1.407       .  A
C405        C406   1.405       .  A
C405        H408   1.085       .  S
C406        C409   1.444       .  S
C409        N411   1.157   1_565  T
C410        N412   1.157       .  T
C413        C414   1.406   1_455  A
C413        C418   1.416       .  A
C414        C415   1.401       .  A
C414        H419   1.084       .  S
C415        C416   1.411       .  A
C415        C422   1.445       .  S
C416        C417   1.403       .  A
C417        C418   1.402   1_655  A
C417        H420   1.085       .  S
C418        C421   1.444       .  S
C421        N423   1.157       .  T
C422        N424   1.157       .  T
C425        C426   1.403       .  A
C425        C430   1.413       .  A
C426        C427   1.396       .  A
C426        H431   1.084       .  S
C427        C428   1.415       .  A
C427        C434   1.446       .  S
C428        C429   1.404       .  A
C429        C430   1.399       .  A
C429        H432   1.084       .  S
C430        C433   1.444       .  S
C433        N435   1.157       .  T
C434        N436   1.158       .  T
C437        C438   1.400       .  A
C437        C442   1.410       .  A
C438        C439   1.400       .  A
C438        H443   1.085       .  S
C439        C440   1.416       .  A
C439        C446   1.445       .  S
C440        C441   1.403       .  A
C441        C442   1.398       .  A
C441        H444   1.085   1_455  S
C442        C445   1.445       .  S
C445        N447   1.157   1_455  T
C446        N448   1.157       .  T
C449        C450   1.408   1_556  A
C449        C454   1.414       .  A
C450        C451   1.401       .  A
C450        H455   1.085       .  S
C451        C452   1.414   1_654  A
C451        C458   1.444       .  S
C452        C453   1.407       .  A
C453        C454   1.401   1_455  A
C453        H456   1.085       .  S
C454        C457   1.444       .  S
C457        N459   1.157       .  T
C458        N460   1.157       .  T
C461        C462   1.403       .  A
C461        C466   1.418       .  A
C462        C463   1.404       .  A
C462        H467   1.085       .  S
C463        C464   1.418       .  A
C463        C470   1.445       .  S
C464        C465   1.403       .  A
C465        C466   1.403       .  A
C465        H468   1.085       .  S
C466        C469   1.445       .  S
C469        N471   1.158       .  T
C470        N472   1.157       .  T
C473        C474   1.404       .  A
C473        C478   1.418   1_556  A
C474        C475   1.401   1_455  A
C474        H479   1.085       .  S
C475        C476   1.419       .  A
C475        C482   1.445       .  S
C476        C477   1.404   1_556  A
C477        C478   1.401   1_655  A
C477        H480   1.085       .  S
C478        C481   1.444       .  S
C481        N483   1.157       .  T
C482        N484   1.158       .  T
C485        C486   1.404       .  A
C485        C490   1.415       .  A
C486        C487   1.409       .  A
C486        H491   1.085   1_455  S
C487        C488   1.420       .  A
C487        C494   1.443   1_455  S
C488        C489   1.405       .  A
C489        C490   1.400       .  A
C489        H492   1.085       .  S
C490        C493   1.446       .  S
C493        N495   1.157       .  T
C494        N496   1.157       .  T
C497        C498   1.406       .  A
C497        C502   1.415       .  A
C498        C499   1.402       .  A
C498        H503   1.084       .  S
C499        C500   1.417       .  A
C499        C506   1.445       .  S
C500        C501   1.403       .  A
C501        C502   1.397       .  A
C501        H504   1.085   1_554  S
C502        C505   1.444       .  S
C505        N507   1.157   1_455  T
C506        N508   1.158       .  T
C509        C510   1.406   1_556  A
C509        C514   1.411       .  A
C510        C511   1.401       .  A
C510        H515   1.085       .  S
C511        C512   1.416   1_554  A
C511        C518   1.444       .  S
C512        C513   1.409       .  A
C513        C514   1.402       .  A
C513        H516   1.084       .  S
C514        C517   1.444       .  S
C517        N519   1.157       .  T
C518        N520   1.157       .  T
C521        C522   1.403       .  A
C521        C526   1.421       .  A
C522        C523   1.398       .  A
C522        H527   1.085       .  S
C523        C524   1.416       .  A
C523        C530   1.445       .  S
C524        C525   1.404       .  A
C525        C526   1.409       .  A
C525        H528   1.085       .  S
C526        C529   1.444       .  S
C529        N531   1.158       .  T
C530        N532   1.157       .  T
C533        C534   1.404       .  A
C533        C538   1.416       .  A
C534        C535   1.393       .  A
C534        H539   1.085       .  S
C535        C536   1.410       .  A
C535        C542   1.446       .  S
C536        C537   1.404       .  A
C537        C538   1.402       .  A
C537        H540   1.085       .  S
C538        C541   1.444       .  S
C541        N543   1.157       .  T
C542        N544   1.157       .  T
C545        C546   1.408   1_556  A
C545        C550   1.415   1_565  A
C546        C547   1.401   1_565  A
C546        H551   1.084       .  S
C547        C548   1.414   1_554  A
C547        C554   1.445       .  S
C548        C549   1.407       .  A
C549        C550   1.402       .  A
C549        H552   1.085       .  S
C550        C553   1.444       .  S
C553        N555   1.157   1_545  T
C554        N556   1.157       .  T
C557        C558   1.402       .  A
C557        C562   1.418       .  A
C558        C559   1.400       .  A
C558        H563   1.085       .  S
C559        C560   1.417       .  A
C559        C566   1.445       .  S
C560        C561   1.405       .  A
C561        C562   1.406       .  A
C561        H564   1.085       .  S
C562        C565   1.445       .  S
C565        N567   1.158       .  T
C566        N568   1.157       .  T
C569        C570   1.405       .  A
C569        C574   1.416       .  A
C570        C571   1.396       .  A
C570        H575   1.085       .  S
C571        C572   1.415       .  A
C571        C578   1.446       .  S
C572        C573   1.405       .  A
C573        C574   1.402       .  A
C573        H576   1.085       .  S
C574        C577   1.444       .  S
C577        N579   1.157   1_565  T
C578        N580   1.158       .  T
C581        C582   1.404       .  A
C581        C586   1.415       .  A
C582        C583   1.400       .  A
C582        H587   1.085       .  S
C583        C584   1.415       .  A
C583        C590   1.445       .  S
C584        C585   1.404       .  A
C585        C586   1.399       .  A
C585        H588   1.084   1_554  S
C586        C589   1.445       .  S
C589        N591   1.157       .  T
C590        N592   1.158       .  T
