geometry optimzed in LAMMPS
_audit_creation_date              2020-12-01 
_audit_creation_method            'lammps2cif' 
_symmetry_space_group_name_H-M    'P1' 
_symmetry_Int_Tables_number       1 
_symmetry_cell_setting            triclinic 
loop_ 
_symmetry_equiv_pos_as_xyz 
  x,y,z 
_cell_length_a                    44.00445104 
_cell_length_b                    44.73478286637903 
_cell_length_c                    44.291727622942645 
_cell_angle_alpha                 89.53568890382147 
_cell_angle_beta                  90.28672679922508 
_cell_angle_gamma                 90.22714999894664 
loop_ 
_atom_site_label 
_atom_site_type_symbol 
_atom_site_fract_x 
_atom_site_fract_y 
_atom_site_fract_z 
_atom_site_charge 
C1          C  0.79903054  0.81871248  0.03196324     0.79300
N2          N  0.81789083  0.84269076  0.02963782    -0.79000
C3          C  0.83175734  0.84970609  0.00329590     0.81700
N4          N  0.82688076  0.83205189  0.97903370    -0.79000
C5          C  0.80825837  0.80779205  0.98063395     0.81800
N6          N  0.79383944  0.80141743  0.00717769    -0.80700
C7          C  0.76258455  0.21780735  0.02404256     0.79300
N8          N  0.78703906  0.19932405  0.02509850    -0.79000
C9          C  0.79809938  0.18713668  0.99950611     0.81700
N10         N  0.78430659  0.19336533  0.97273230    -0.79000
C11         C  0.75950141  0.21151800  0.97121725     0.81800
N12         N  0.74871432  0.22365930  0.99712119    -0.80700
C13         C  0.19376744  0.84700998  0.03473372     0.79300
N14         N  0.17199052  0.86802645  0.03101619    -0.79000
C15         C  0.16564044  0.87994378  0.00352085     0.81700
N16         N  0.18137754  0.87034354  0.97916321    -0.79000
C17         C  0.20344330  0.84918084  0.98229941     0.81800
N18         N  0.20944625  0.83749796  0.01021146    -0.80700
C19         C  0.79122829  0.05135983  0.78912066     0.79300
N20         N  0.78148303  0.02491374  0.77754887    -0.79000
C21         C  0.79255660  0.99884277  0.78908512     0.81700
N22         N  0.81319896  0.99935123  0.81199022    -0.79000
C23         C  0.82338933  0.02572072  0.82301258     0.81800
N24         N  0.81207767  0.05160174  0.81175176    -0.80700
C25         C  0.95920251  0.21616984  0.78311075     0.79300
N26         N  0.95882827  0.20003693  0.80921201    -0.79000
C27         C  0.98498741  0.19133777  0.82285863     0.81700
N28         N  0.01196812  0.19880027  0.81003280    -0.79000
C29         C  0.01293032  0.21492823  0.78376429     0.81800
N30         N  0.98636231  0.22343805  0.77022532    -0.80700
C31         C  0.96507337  0.84546905  0.79368259     0.79300
N32         N  0.96485351  0.86642933  0.81553535    -0.79000
C33         C  0.99103422  0.87900224  0.82520239     0.81700
N34         N  0.01772438  0.87037578  0.81300012    -0.79000
C35         C  0.01816258  0.84991704  0.79050641     0.81800
N36         N  0.99173912  0.83721450  0.78104529    -0.80700
C37         C  0.18797560  0.05239127  0.80280132     0.79300
N38         N  0.16659533  0.05626222  0.82433695    -0.79000
C39         C  0.15438087  0.03231695  0.83870246     0.81700
N40         N  0.16300544  0.00440933  0.83081057    -0.79000
C41         C  0.18402024  0.00046928  0.80887795     0.81800
N42         N  0.19688586  0.02455187  0.79518762    -0.80700
C43         C  0.95405339  0.81470123  0.18366285     0.79300
N44         N  0.95654003  0.83822710  0.16425592    -0.79000
C45         C  0.98383864  0.84652469  0.15284802     0.81700
N46         N  0.00912103  0.83092681  0.16090927    -0.79000
C47         C  0.00692497  0.80715033  0.18024273     0.81800
N48         N  0.97938482  0.79927218  0.19177212    -0.80700
C49         C  0.77020478  0.05971486  0.18919717     0.79300
N50         N  0.79496431  0.05597605  0.17151088    -0.79000
C51         C  0.80347037  0.02842477  0.16242746     0.81700
N52         N  0.78658973  0.00426701  0.17077775    -0.79000
C53         C  0.76189725  0.00745677  0.18890270     0.81800
N54         N  0.75395934  0.03527969  0.19846590    -0.80700
C55         C  0.94966052  0.20842708  0.22778184     0.79300
N56         N  0.94950809  0.18964116  0.20370300    -0.79000
C57         C  0.97576096  0.18191423  0.18982691     0.81700
N58         N  0.00245612  0.19357683  0.19993069    -0.79000
C59         C  0.00311973  0.21188413  0.22428872     0.81800
N60         N  0.97668679  0.21930173  0.23808792    -0.80700
Zr61       Zr  0.26239160  0.31627524  0.29092614     2.17500
O62         O  0.30439755  0.31714207  0.32709687    -0.52300
O63         O  0.25794243  0.37020176  0.28966937    -0.75500
O64         O  0.31391504  0.32705548  0.27400714    -0.82200
O65         O  0.19764544  0.30029391  0.34780298    -0.84000
O66         O  0.32087106  0.30651346  0.22774798    -0.79600
O67         O  0.24514058  0.32025806  0.34291895    -0.91200
O68         O  0.22445473  0.38398803  0.25304698    -0.77200
O69         O  0.25693341  0.32756379  0.23861861    -0.86700
O70         O  0.20986980  0.32723464  0.28387958    -0.86400
O71         O  0.27925730  0.27240646  0.26523656    -0.73100
O72         O  0.23464160  0.27277934  0.30695537    -0.85300
Zr73       Zr  0.19441156  0.24989220  0.21982894     2.26400
Zr74       Zr  0.27270949  0.28352013  0.21245689     2.06300
Zr75       Zr  0.18193671  0.28309532  0.29777929     2.10000
Zr76       Zr  0.20443555  0.33817810  0.23162098     1.78800
O77         O  0.16429853  0.24599332  0.33428803    -0.94100
O78         O  0.22331759  0.36714677  0.18878242    -0.41900
O79         O  0.17667181  0.29383467  0.24502508    -0.78500
O80         O  0.22005162  0.29516605  0.20415701    -0.97200
O81         O  0.24652782  0.23889365  0.22804420    -0.90500
O82         O  0.19843283  0.23897735  0.27228681    -0.93400
C83         C  0.24321049  0.38990861  0.27442417     1.00400
C84         C  0.22168581  0.31289423  0.35850369     1.13300
C85         C  0.33034473  0.32104448  0.25092381     1.04100
O86         O  0.29332298  0.31598164  0.17313561    -0.95500
O87         O  0.25740597  0.26683204  0.16183768    -0.91300
O88         O  0.20891285  0.25016902  0.16724592    -0.84400
C89         C  0.23227975  0.25629638  0.15125967     1.10700
O90         O  0.28503082  0.23023024  0.32465598    -0.97500
Zr91       Zr  0.25096897  0.22923029  0.28106377     1.88900
O92         O  0.20185919  0.19580083  0.22194618    -0.74100
O93         O  0.30864935  0.24377390  0.20193340    -0.53400
O94         O  0.29775602  0.20273926  0.26973750    -0.98100
O95         O  0.22968251  0.20013744  0.32278330    -0.55300
O96         O  0.23468729  0.18245679  0.25922719    -0.74700
C97         C  0.21685910  0.17623857  0.23722413     0.97700
O98         O  0.15519257  0.23144589  0.18533750    -0.63500
O99         O  0.14416195  0.32039033  0.31115264    -0.58300
O100        O  0.14086182  0.24928228  0.23149488    -0.95000
O101        O  0.13224227  0.26592250  0.27895936    -0.93400
O102        O  0.15920902  0.36407316  0.24895248    -0.93700
O103        O  0.16668682  0.34468892  0.19175247    -0.92500
C104        C  0.12317583  0.25535019  0.25346971     1.16500
H105        H  0.20382565  0.34388546  0.29618876     0.32500
H106        H  0.21608689  0.30061405  0.18339896     0.43300
H107        H  0.18581750  0.22204131  0.27760071     0.36900
H108        H  0.30043124  0.26879634  0.26974057     0.33300
H109        H  0.21408344  0.38715662  0.19099856     0.25100
H110        H  0.32254501  0.25247523  0.18667383     0.31100
H111        H  0.29428074  0.18205943  0.27711374     0.37000
H112        H  0.16511931  0.37328286  0.26837523     0.31400
H113        H  0.13225754  0.31085996  0.32753839     0.30300
H114        H  0.14265922  0.25087114  0.33765310     0.32000
H115        H  0.21068187  0.19116286  0.31488185     0.31000
H116        H  0.15773854  0.32453865  0.18904600     0.35000
H117        H  0.15261084  0.24694646  0.16944667     0.27700
H118        H  0.30178613  0.33569973  0.33883154     0.31900
H119        H  0.28894925  0.20903695  0.32990417     0.34800
H120        H  0.15564002  0.33658301  0.32125248     0.27400
H121        H  0.16412873  0.21408183  0.17491244     0.40300
H122        H  0.29104565  0.33647457  0.18106847     0.30300
H123        H  0.24515718  0.37035929  0.19320025     0.37900
H124        H  0.22280563  0.21525514  0.33743550     0.29800
H125        H  0.32115383  0.24201211  0.22049603     0.29800
H126        H  0.30027363  0.30063094  0.34155139     0.30100
C127        C  0.18779015  0.05513865  0.20402805     0.79300
N128        N  0.20183147  0.02879907  0.21085943    -0.79000
C129        C  0.19129750  0.00271857  0.19882120     0.81700
N130        N  0.16667360  0.00338194  0.18014112    -0.79000
C131        C  0.15319047  0.02956961  0.17254211     0.81800
N132        N  0.16382727  0.05529302  0.18462278    -0.80700
Zr133      Zr  0.26068682  0.74613649  0.29683049     2.17500
O134        O  0.29882369  0.70667804  0.29569099    -0.52300
O135        O  0.25644289  0.74507334  0.35156551    -0.75500
O136        O  0.31140066  0.76409769  0.30850963    -0.82200
O137        O  0.20185500  0.68664569  0.27439375    -0.84000
O138        O  0.31763090  0.81087354  0.28896273    -0.79600
O139        O  0.24561939  0.69444087  0.30092635    -0.91200
O140        O  0.21675691  0.77420569  0.36535172    -0.77200
O141        O  0.25200835  0.79643067  0.31112254    -0.86700
O142        O  0.20758736  0.74861046  0.30621274    -0.86400
O143        O  0.27748257  0.77529312  0.25421368    -0.73100
O144        O  0.23621779  0.73181786  0.25064016    -0.85300
Zr145      Zr  0.18995816  0.81598900  0.23245294     2.26400
Zr146      Zr  0.26791784  0.82610008  0.26857759     2.06300
Zr147      Zr  0.18281180  0.73568077  0.25985290     2.10000
Zr148      Zr  0.19866705  0.79895619  0.31997968     1.78800
O149        O  0.16921562  0.70160406  0.21934618    -0.94100
O150        O  0.21438750  0.83902733  0.35363847    -0.41900
O151        O  0.17287915  0.78612472  0.27418458    -0.78500
O152        O  0.21457255  0.83007731  0.27865078    -0.97200
O153        O  0.24284955  0.81279166  0.22250672    -0.90500
O154        O  0.19825125  0.76570988  0.21789671    -0.93400
C155        C  0.23847465  0.75612033  0.37126690     1.00400
C156        C  0.22463689  0.67762168  0.29017745     1.13300
C157        C  0.32751033  0.78740030  0.30284021     1.04100
O158        O  0.27903236  0.86172822  0.30840671    -0.95500
O159        O  0.25107673  0.87482276  0.24846898    -0.91300
O160        O  0.20626607  0.86672466  0.22393715    -0.84400
C161        C  0.22808615  0.88368457  0.23263091     1.10700
O162        O  0.29263682  0.72716520  0.20088827    -0.97500
Zr163      Zr  0.25120395  0.76227322  0.20865061     1.88900
O164        O  0.19342849  0.81772803  0.17769844    -0.74100
O165        O  0.30682708  0.84659296  0.23531328    -0.53400
O166        O  0.29391499  0.78436203  0.18157692    -0.98100
O167        O  0.23472800  0.71907890  0.17944720    -0.55300
O168        O  0.22998389  0.78509084  0.16350481    -0.74700
C169        C  0.20938742  0.80451325  0.15762608     0.97700
O170        O  0.15040699  0.85325536  0.24064506    -0.63500
O171        O  0.14604594  0.71332082  0.29431389    -0.58300
O172        O  0.13985433  0.79815078  0.21919475    -0.95000
O173        O  0.13349668  0.75174372  0.23989408    -0.93400
O174        O  0.15314074  0.77723428  0.34240387    -0.93700
O175        O  0.15816330  0.83517350  0.32696026    -0.92500
C176        C  0.12383158  0.77500110  0.22555653     1.16500
H177        H  0.20156775  0.73486943  0.32204739     0.32500
H178        H  0.20962979  0.85048801  0.28348441     0.43300
H179        H  0.18644609  0.76069315  0.20018755     0.36900
H180        H  0.29886376  0.77217187  0.25066868     0.33300
H181        H  0.20144408  0.83654672  0.37171707     0.25100
H182        H  0.32074018  0.85778415  0.24879521     0.31100
H183        H  0.28797174  0.80538852  0.17778526     0.37000
H184        H  0.15618015  0.77902540  0.36447784     0.31400
H185        H  0.13478218  0.73050217  0.30256132     0.30300
H186        H  0.15185953  0.68988352  0.22734222     0.32000
H187        H  0.21528260  0.72505273  0.16987385     0.31000
H188        H  0.16006549  0.84931046  0.30977215     0.35000
H189        H  0.13440839  0.84282545  0.25237502     0.27700
H190        H  0.30902530  0.70706241  0.31566838     0.31900
H191        H  0.29437726  0.72498927  0.17872628     0.34800
H192        H  0.13117419  0.70306359  0.28107924     0.27400
H193        H  0.15911861  0.86759259  0.25528182     0.40300
H194        H  0.25888857  0.86723975  0.31644881     0.30300
H195        H  0.23498264  0.83331688  0.36064894     0.37900
H196        H  0.22892901  0.70385493  0.19473580     0.29800
H197        H  0.31871052  0.82904670  0.22883960     0.29800
H198        H  0.31440380  0.71357015  0.28112436     0.30100
Zr199      Zr  0.76478107  0.25570450  0.21299423     2.17500
O200        O  0.80499289  0.25723246  0.17524098    -0.52300
O201        O  0.76059172  0.20150552  0.21212145    -0.75500
O202        O  0.81377898  0.24213044  0.23339110    -0.82200
O203        O  0.70531670  0.27066059  0.15121672    -0.84000
O204        O  0.81954716  0.26134142  0.28042174    -0.79600
O205        O  0.75218717  0.25139679  0.16041640    -0.91200
O206        O  0.72507862  0.18658347  0.24601889    -0.77200
O207        O  0.75631034  0.24238596  0.26420665    -0.86700
O208        O  0.71194696  0.24462861  0.21529478    -0.86400
O209        O  0.78109262  0.29867257  0.24107489    -0.73100
O210        O  0.73978372  0.30056577  0.19655399    -0.85300
Zr211      Zr  0.69242670  0.31871484  0.28043929     2.26400
Zr212      Zr  0.77112555  0.28544841  0.29265614     2.06300
Zr213      Zr  0.68664806  0.28963152  0.19977330     2.10000
Zr214      Zr  0.70344660  0.23180047  0.26685937     1.78800
O215        O  0.67718384  0.32997118  0.16374626    -0.94100
O216        O  0.71922821  0.20220315  0.31053819    -0.41900
O217        O  0.67719174  0.27614918  0.25132372    -0.78500
O218        O  0.71786421  0.27383397  0.29675914    -0.97200
O219        O  0.74518740  0.33032522  0.27781751    -0.90500
O220        O  0.70091487  0.33235967  0.22908789    -0.93400
C221        C  0.74535590  0.18119861  0.22611191     1.00400
C222        C  0.73013222  0.25811342  0.14269579     1.13300
C223        C  0.82914723  0.24655953  0.25755291     1.04100
O224        O  0.78619079  0.25103585  0.33280243    -0.95500
O225        O  0.75365798  0.30421495  0.34126479    -0.91300
O226        O  0.70615681  0.32279247  0.33335846    -0.84400
C227        C  0.72893420  0.31639089  0.35035600     1.10700
O228        O  0.79293416  0.34817696  0.18776237    -0.97500
Zr229      Zr  0.75395960  0.34298475  0.22634051     1.88900
O230        O  0.69645128  0.37303404  0.28124541    -0.74100
O231        O  0.80905772  0.32252629  0.30707547    -0.53400
O232        O  0.79917294  0.36848119  0.24513293    -0.98100
O233        O  0.73771898  0.37589687  0.18522343    -0.55300
O234        O  0.73471518  0.38778648  0.25033320    -0.74700
C235        C  0.71325378  0.39324904  0.26898177     0.97700
O236        O  0.64834306  0.31884061  0.31366686    -0.63500
O237        O  0.64627804  0.25869932  0.17858764    -0.58300
O238        O  0.64099004  0.32595214  0.26232628    -0.95000
O239        O  0.63606816  0.30652552  0.21516236    -0.93400
O240        O  0.66017997  0.20324092  0.24809269    -0.93700
O241        O  0.66274308  0.22815792  0.30378944    -0.92500
C242        C  0.62539339  0.31931202  0.23878756     1.16500
H243        H  0.70660465  0.22834798  0.20205769     0.32500
H244        H  0.71271231  0.26883041  0.31735332     0.43300
H245        H  0.68883089  0.34952304  0.22346576     0.36900
H246        H  0.80255844  0.30211723  0.23813678     0.33300
H247        H  0.70727540  0.18346696  0.30907860     0.25100
H248        H  0.81943878  0.31363256  0.32486608     0.31100
H249        H  0.79381692  0.37487129  0.26577716     0.37000
H250        H  0.65893895  0.20820760  0.22631100     0.31400
H251        H  0.64362653  0.26603124  0.15758903     0.30300
H252        H  0.66448834  0.32078007  0.14777942     0.32000
H253        H  0.71750151  0.38341140  0.19117459     0.31000
H254        H  0.65011044  0.24609489  0.30005930     0.35000
H255        H  0.65145183  0.30200319  0.32799389     0.27700
H256        H  0.81497577  0.23743175  0.17614435     0.31900
H257        H  0.78910919  0.33144297  0.17372430     0.34800
H258        H  0.65532927  0.23861327  0.17653319     0.27400
H259        H  0.65025863  0.33713038  0.32599165     0.40300
H260        H  0.77121075  0.23452719  0.33172585     0.30300
H261        H  0.74033665  0.19615192  0.30607505     0.37900
H262        H  0.73346875  0.36232805  0.16815777     0.29800
H263        H  0.82441729  0.32202464  0.29083497     0.29800
H264        H  0.82033177  0.27152491  0.18300222     0.30100
Zr265      Zr  0.69482303  0.75197060  0.29146215     2.17500
O266        O  0.65418788  0.71469695  0.29204381    -0.52300
O267        O  0.69800374  0.75358287  0.34609503    -0.75500
O268        O  0.71373591  0.70106258  0.29840150    -0.82200
O269        O  0.63386583  0.81204393  0.27846629    -0.84000
O270        O  0.76024012  0.69651410  0.27657402    -0.79600
O271        O  0.64278201  0.76678821  0.30068742    -0.91200
O272        O  0.72900550  0.79172262  0.36009758    -0.77200
O273        O  0.74711530  0.75970394  0.30287657    -0.86700
O274        O  0.69896583  0.80385830  0.30274387    -0.86400
O275        O  0.72128878  0.73756248  0.24663491    -0.73100
O276        O  0.67715558  0.77850372  0.24745786    -0.85300
Zr277      Zr  0.76148034  0.82461422  0.22570486     2.26400
Zr278      Zr  0.77406513  0.74655576  0.25784224     2.06300
Zr279      Zr  0.68234904  0.83066324  0.25856897     2.10000
Zr280      Zr  0.75122584  0.81157008  0.31401144     1.78800
O281        O  0.64375411  0.84370246  0.22110583    -0.94100
O282        O  0.79411024  0.79287613  0.34351080    -0.41900
O283        O  0.73481141  0.83924388  0.27032108    -0.78500
O284        O  0.77943753  0.79861458  0.26998617    -0.97200
O285        O  0.75719864  0.77315780  0.21376930    -0.90500
O286        O  0.70921381  0.81712843  0.21380332    -0.93400
C287        C  0.71061400  0.77020355  0.36606279     1.00400
C288        C  0.62537070  0.78867893  0.29342699     1.13300
C289        C  0.73700251  0.68571634  0.29055688     1.04100
O290        O  0.81356103  0.73217001  0.29374032    -0.95500
O291        O  0.82298957  0.76405063  0.23750206    -0.91300
O292        O  0.81360773  0.81001110  0.21770060    -0.84400
C293        C  0.83144736  0.78816851  0.22377083     1.10700
O294        O  0.66529361  0.72716426  0.19842723    -0.97500
Zr295      Zr  0.70479406  0.76514640  0.20318407     1.88900
O296        O  0.76061242  0.82054617  0.17104463    -0.74100
O297        O  0.78917975  0.71188118  0.21861843    -0.53400
O298        O  0.72155820  0.72077659  0.17655292    -0.98100
O299        O  0.66173795  0.78261411  0.17317451    -0.55300
O300        O  0.72908235  0.78270394  0.15737943    -0.74700
C301        C  0.74824728  0.80349166  0.15128252     0.97700
O302        O  0.79619197  0.86722970  0.22285930    -0.63500
O303        O  0.66203380  0.86589581  0.29483862    -0.58300
O304        O  0.74483170  0.87561921  0.21909701    -0.95000
O305        O  0.69856821  0.88083175  0.24104997    -0.93400
O306        O  0.73445186  0.85453260  0.34282833    -0.93700
O307        O  0.79075750  0.84958958  0.31831900    -0.92500
C308        C  0.72197290  0.89131103  0.22700311     1.16500
H309        H  0.68642681  0.80907784  0.31973930     0.32500
H310        H  0.80045165  0.80347686  0.27403940     0.43300
H311        H  0.70307533  0.82935927  0.19678651     0.36900
H312        H  0.71767623  0.71674168  0.24227063     0.33300
H313        H  0.79093202  0.80078688  0.36406826     0.25100
H314        H  0.80545073  0.69969257  0.22801901     0.31100
H315        H  0.74305697  0.72483994  0.17139086     0.37000
H316        H  0.72929262  0.86984373  0.32740191     0.31400
H317        H  0.67994878  0.87703969  0.30236682     0.30300
H318        H  0.64998092  0.86338035  0.21279131     0.32000
H319        H  0.66914702  0.80072093  0.16248957     0.31000
H320        H  0.79389207  0.85690058  0.29739730     0.35000
H321        H  0.81155446  0.86385641  0.23892044     0.27700
H322        H  0.65654636  0.70361151  0.31135952     0.31900
H323        H  0.65027740  0.73214290  0.21417117     0.34800
H324        H  0.65062610  0.88061837  0.28245642     0.27400
H325        H  0.80730558  0.86519564  0.20359306     0.40300
H326        H  0.82595760  0.71734972  0.28285087     0.30300
H327        H  0.79044323  0.77110713  0.34556919     0.37900
H328        H  0.64709829  0.79020098  0.18816170     0.29800
H329        H  0.77178994  0.69794861  0.21645476     0.29800
H330        H  0.65940976  0.70017003  0.27615590     0.30100
C331        C  0.19500840  0.22627368  0.03133720     0.79300
N332        N  0.20782359  0.23464351  0.00467219    -0.79000
C333        C  0.19509476  0.22569517  0.97822040     0.81700
N334        N  0.17002780  0.20791429  0.97868637    -0.79000
C335        C  0.15686565  0.19963388  0.00506725     0.81800
N336        N  0.16943604  0.20896423  0.03149102    -0.80700
Zr337      Zr  0.20435642  0.23825496  0.78540023     2.17500
O338        O  0.17015171  0.22125844  0.82534348    -0.52300
O339        O  0.20948950  0.18502865  0.77850821    -0.75500
O340        O  0.15213630  0.23202900  0.76873503    -0.82200
O341        O  0.26176870  0.26098137  0.84882880    -0.84000
O342        O  0.14555349  0.25254933  0.72212002    -0.79600
O343        O  0.21617989  0.23924843  0.83868605    -0.91200
O344        O  0.24803589  0.17427376  0.74661928    -0.77200
O345        O  0.21268159  0.22980054  0.73323934    -0.86700
O346        O  0.25759807  0.22963002  0.78179227    -0.86400
O347        O  0.18595304  0.28295184  0.76127297    -0.73100
O348        O  0.22874308  0.28217131  0.80411851    -0.85300
Zr349      Zr  0.27224332  0.31034898  0.72170462     2.26400
Zr350      Zr  0.19510568  0.27464258  0.70847311     2.06300
Zr351      Zr  0.28229011  0.27434213  0.79917560     2.10000
Zr352      Zr  0.26628175  0.22223990  0.72942675     1.78800
O353        O  0.30084254  0.30859756  0.83759821    -0.94100
O354        O  0.25330854  0.19419596  0.68417125    -0.41900
O355        O  0.29145428  0.26652194  0.74656244    -0.78500
O356        O  0.24865494  0.26564675  0.70314154    -0.97200
O357        O  0.21933972  0.31917268  0.72667241    -0.90500
O358        O  0.26511434  0.31900009  0.77401418    -0.93400
C359        C  0.22637344  0.16678122  0.76422708     1.00400
C360        C  0.23670800  0.24850797  0.85706795     1.13300
C361        C  0.13572609  0.23837702  0.74560476     1.04100
O362        O  0.18019102  0.24091708  0.66814670    -0.95500
O363        O  0.21265580  0.29628695  0.66014250    -0.91300
O364        O  0.25952134  0.31598812  0.66913345    -0.84400
C365        C  0.23737450  0.30938491  0.65155050     1.10700
O366        O  0.17225009  0.32811991  0.81769316    -0.97500
Zr367      Zr  0.21180112  0.32649201  0.77937146     1.88900
O368        O  0.26390371  0.36362715  0.72520742    -0.74100
O369        O  0.15708720  0.31132669  0.69341342    -0.53400
O370        O  0.16614151  0.35233152  0.76227467    -0.98100
O371        O  0.22898214  0.35039152  0.82575557    -0.55300
O372        O  0.22894301  0.37449513  0.76095650    -0.74700
C373        C  0.24774675  0.38194167  0.74029132     0.97700
O374        O  0.30888467  0.32127339  0.68177077    -0.63500
O375        O  0.31643424  0.23433459  0.81500843    -0.58300
O376        O  0.32363410  0.31809005  0.73914865    -0.95000
O377        O  0.33203138  0.29434334  0.78390114    -0.93400
O378        O  0.31018547  0.19563425  0.74959112    -0.93700
O379        O  0.30770282  0.22220982  0.69314862    -0.92500
C380        C  0.34087302  0.30994614  0.76100611     1.16500
H381        H  0.26365554  0.21250653  0.79377523     0.32500
H382        H  0.25376833  0.26230671  0.68230106     0.43300
H383        H  0.27666635  0.33616899  0.78065056     0.36900
H384        H  0.16466016  0.28618400  0.76517041     0.33300
H385        H  0.23258103  0.18634901  0.68788012     0.25100
H386        H  0.14324154  0.30037987  0.67966195     0.31100
H387        H  0.17056183  0.35853731  0.74124039     0.37000
H388        H  0.32565046  0.21135915  0.75315508     0.31400
H389        H  0.33571188  0.23836484  0.80427220     0.30300
H390        H  0.32054485  0.30013786  0.84426664     0.32000
H391        H  0.24720157  0.36210655  0.82000846     0.31000
H392        H  0.31466818  0.24326989  0.69216988     0.35000
H393        H  0.31858158  0.34059108  0.68697686     0.27700
H394        H  0.16097271  0.20236623  0.81810479     0.31900
H395        H  0.16915769  0.34958423  0.82200258     0.34800
H396        H  0.32112768  0.23865952  0.83641094     0.27400
H397        H  0.32515158  0.30613058  0.68374412     0.40300
H398        H  0.19506577  0.22442298  0.66928314     0.30300
H399        H  0.25061421  0.20943535  0.66806199     0.37900
H400        H  0.23698375  0.33383945  0.83843495     0.29800
H401        H  0.14491569  0.31459394  0.71182281     0.29800
H402        H  0.15322348  0.23577943  0.82577585     0.30100
Zr403      Zr  0.20493476  0.80633164  0.80059600     2.17500
O404        O  0.16525867  0.80184006  0.83869684    -0.52300
O405        O  0.20590533  0.86019083  0.79836747    -0.75500
O406        O  0.22296722  0.81867045  0.85023782    -0.82200
O407        O  0.14642030  0.79645528  0.73801805    -0.84000
O408        O  0.26887768  0.79667590  0.85816068    -0.79600
O409        O  0.15383552  0.81658179  0.78456805    -0.91200
O410        O  0.24170471  0.87531341  0.76478676    -0.77200
O411        O  0.25710758  0.81868453  0.79483829    -0.86700
O412        O  0.21028010  0.81937530  0.74882015    -0.86400
O413        O  0.23140420  0.76224452  0.81671740    -0.73100
O414        O  0.18824874  0.76312973  0.77359199    -0.85300
Zr415      Zr  0.27445334  0.74436299  0.73032337     2.26400
Zr416      Zr  0.28405974  0.77450765  0.80979784     2.06300
Zr417      Zr  0.19488870  0.77606687  0.72149788     2.10000
Zr418      Zr  0.26264106  0.83076018  0.74268917     1.78800
O419        O  0.15217366  0.74454295  0.70670590    -0.94100
O420        O  0.30703034  0.85856444  0.75998771    -0.41900
O421        O  0.24745277  0.78795805  0.71414157    -0.78500
O422        O  0.29089224  0.78753494  0.75755935    -0.97200
O423        O  0.26879595  0.73129542  0.78206377    -0.90500
O424        O  0.22215133  0.73218067  0.73605489    -0.93400
C425        C  0.22094664  0.88039959  0.78419701     1.00400
C426        C  0.13737506  0.81044967  0.76154250     1.13300
C427        C  0.24587157  0.81211067  0.86682563     1.04100
O428        O  0.32529236  0.80749738  0.82525640    -0.95500
O429        O  0.33297300  0.75409023  0.79317854    -0.91300
O430        O  0.32504165  0.73224774  0.74746304    -0.84400
C431        C  0.34189976  0.73933369  0.76998628     1.10700
O432        O  0.18000963  0.71271951  0.82869238    -0.97500
Zr433      Zr  0.21640560  0.71949590  0.78782142     1.88900
O434        O  0.27332750  0.69046938  0.73103825    -0.74100
O435        O  0.29602206  0.73686738  0.84801972    -0.53400
O436        O  0.23711482  0.68739053  0.82750105    -0.98100
O437        O  0.17009260  0.69454907  0.77076455    -0.55300
O438        O  0.23670283  0.67526501  0.76368983    -0.74700
C439        C  0.25736030  0.67014401  0.74405949     0.97700
O440        O  0.31249983  0.75390651  0.69145640    -0.63500
O441        O  0.18380382  0.81380590  0.68309787    -0.58300
O442        O  0.25631035  0.73219698  0.68046790    -0.95000
O443        O  0.20930493  0.75250463  0.67408217    -0.93400
O444        O  0.24272585  0.85888369  0.69968602    -0.93700
O445        O  0.30005324  0.83929217  0.70316859    -0.92500
C446        C  0.23239654  0.73768057  0.66477240     1.16500
H447        H  0.19773779  0.83624231  0.74325804     0.32500
H448        H  0.31205820  0.79158557  0.75353193     0.43300
H449        H  0.21627424  0.71560403  0.72343596     0.36900
H450        H  0.22730384  0.75816398  0.83775614     0.33300
H451        H  0.30470436  0.87876563  0.75098941     0.25100
H452        H  0.30993159  0.74713040  0.86223094     0.31100
H453        H  0.25893471  0.68532479  0.82261316     0.37000
H454        H  0.25033832  0.87952740  0.70257979     0.31400
H455        H  0.20168904  0.81371969  0.66962146     0.30300
H456        H  0.14802035  0.74999035  0.68537652     0.32000
H457        H  0.17266193  0.67338204  0.77688889     0.31000
H458        H  0.31269896  0.82105315  0.70328540     0.35000
H459        H  0.30263369  0.76790652  0.67704771     0.27700
H460        H  0.16419319  0.82165056  0.84846385     0.31900
H461        H  0.17758025  0.69083641  0.83131826     0.34800
H462        H  0.16719898  0.80500613  0.67085411     0.27400
H463        H  0.32839165  0.76623354  0.70128616     0.40300
H464        H  0.33274616  0.81656921  0.80620582     0.30300
H465        H  0.30366144  0.86145459  0.78184824     0.37900
H466        H  0.17137947  0.69440912  0.74846633     0.29800
H467        H  0.27695047  0.73409196  0.85949776     0.29800
H468        H  0.17344500  0.78818582  0.85442842     0.30100
Zr469      Zr  0.76929486  0.24411468  0.78154429     2.17500
O470        O  0.81001783  0.24053435  0.81905316    -0.52300
O471        O  0.76664663  0.18988994  0.77776876    -0.75500
O472        O  0.75117369  0.23538946  0.83233560    -0.82200
O473        O  0.82942659  0.25856427  0.72036804    -0.84000
O474        O  0.70396430  0.25470332  0.83822766    -0.79600
O475        O  0.82123217  0.23689160  0.76630718    -0.91200
O476        O  0.73475245  0.17712121  0.73947693    -0.77200
O477        O  0.71703626  0.23264917  0.77415297    -0.86700
O478        O  0.76448610  0.23375440  0.72925322    -0.86400
O479        O  0.74320068  0.28824335  0.79779395    -0.73100
O480        O  0.78643406  0.28842526  0.75579690    -0.85300
Zr481      Zr  0.70157953  0.31084738  0.71059611     2.26400
Zr482      Zr  0.69040524  0.27686851  0.78904861     2.06300
Zr483      Zr  0.78042872  0.27798769  0.70300285     2.10000
Zr484      Zr  0.71214424  0.22318664  0.72147085     1.78800
O485        O  0.82023022  0.31276669  0.68755920    -0.94100
O486        O  0.66879309  0.19370348  0.73875237    -0.41900
O487        O  0.72779626  0.26713401  0.69433000    -0.78500
O488        O  0.68434151  0.26653583  0.73624550    -0.97200
O489        O  0.70655367  0.32116995  0.76291402    -0.90500
O490        O  0.75388131  0.32197347  0.71794919    -0.93400
C491        C  0.75371272  0.17069146  0.76050823     1.00400
C492        C  0.83823479  0.24390788  0.74393067     1.13300
C493        C  0.72754043  0.24068735  0.84814996     1.04100
O494        O  0.65064339  0.24048394  0.80007790    -0.95500
O495        O  0.64248934  0.29984515  0.77237333    -0.91300
O496        O  0.65094744  0.32247034  0.72694696    -0.84400
C497        C  0.63385280  0.31530757  0.74920425     1.10700
O498        O  0.79708372  0.33826658  0.80991488    -0.97500
Zr499      Zr  0.75886690  0.33208414  0.77037380     1.88900
O500        O  0.70330808  0.36485933  0.71412964    -0.74100
O501        O  0.67402642  0.31113912  0.82817753    -0.53400
O502        O  0.73768920  0.36035642  0.81206591    -0.98100
O503        O  0.80281459  0.36019835  0.75218731    -0.55300
O504        O  0.73742565  0.37799802  0.75027125    -0.74700
C505        C  0.71785730  0.38434907  0.72969479     0.97700
O506        O  0.66289675  0.30585636  0.67110865    -0.63500
O507        O  0.79452500  0.24001990  0.66660609    -0.58300
O508        O  0.72027674  0.32297369  0.66065993    -0.95000
O509        O  0.76469510  0.29811462  0.65358580    -0.93400
O510        O  0.73171073  0.19946631  0.67630382    -0.93700
O511        O  0.67250349  0.21547531  0.68378030    -0.92500
C512        C  0.74239766  0.31433993  0.64417973     1.16500
H513        H  0.77707258  0.21719074  0.72348777     0.32500
H514        H  0.66318867  0.26300922  0.73154911     0.43300
H515        H  0.76013116  0.33895037  0.70584470     0.36900
H516        H  0.74697742  0.29177678  0.81896397     0.33300
H517        H  0.67647335  0.18210523  0.75630260     0.25100
H518        H  0.66241220  0.29860370  0.84263076     0.31100
H519        H  0.73980327  0.34716784  0.82999759     0.37000
H520        H  0.72769100  0.17784974  0.67923788     0.31400
H521        H  0.77651620  0.23790489  0.65329798     0.30300
H522        H  0.82473696  0.30748865  0.66638745     0.32000
H523        H  0.79524863  0.37244391  0.73503473     0.31000
H524        H  0.67007728  0.23524735  0.67388356     0.35000
H525        H  0.67238312  0.29378496  0.65508591     0.27700
H526        H  0.80708325  0.22110389  0.82955289     0.31900
H527        H  0.79928988  0.36014063  0.81251646     0.34800
H528        H  0.81002863  0.24982475  0.65374487     0.27400
H529        H  0.64729421  0.29223665  0.67963390     0.40300
H530        H  0.63792831  0.25015654  0.81554550     0.30300
H531        H  0.65473207  0.20842300  0.74760223     0.37900
H532        H  0.81595037  0.34502516  0.74274837     0.29800
H533        H  0.69286916  0.31651249  0.83918729     0.29800
H534        H  0.80556720  0.25590916  0.83435166     0.30100
Zr535      Zr  0.77025645  0.80842850  0.79547100     2.17500
O536        O  0.76918515  0.84683219  0.83435387    -0.52300
O537        O  0.82497002  0.81204346  0.79010221    -0.75500
O538        O  0.78248552  0.79019813  0.84562209    -0.82200
O539        O  0.75396250  0.86770838  0.73462492    -0.84000
O540        O  0.76040641  0.74471273  0.85271181    -0.79600
O541        O  0.77163658  0.86070698  0.78247158    -0.91200
O542        O  0.84076266  0.77949805  0.75436108    -0.77200
O543        O  0.78496368  0.75793029  0.78870466    -0.86700
O544        O  0.78253667  0.80479941  0.74336625    -0.86400
O545        O  0.72665920  0.77979258  0.81103044    -0.73100
O546        O  0.72512480  0.82295623  0.76871299    -0.85300
Zr547      Zr  0.70862185  0.73923688  0.72342420     2.26400
Zr548      Zr  0.74148248  0.72882926  0.80281847     2.06300
Zr549      Zr  0.73769121  0.81872130  0.71634624     2.10000
Zr550      Zr  0.79615892  0.75384821  0.73639637     1.78800
O551        O  0.70328721  0.85822621  0.70000024    -0.94100
O552        O  0.82849723  0.71515025  0.75828477    -0.41900
O553        O  0.75190663  0.76790531  0.70806321    -0.78500
O554        O  0.75352140  0.72383850  0.75024022    -0.97200
O555        O  0.69628676  0.74247206  0.77552372    -0.90500
O556        O  0.69412008  0.78973912  0.73048254    -0.93400
C557        C  0.84546122  0.80012680  0.77364768     1.00400
C558        C  0.76491353  0.87730813  0.75973235     1.13300
C559        C  0.77524995  0.76772790  0.86220886     1.04100
O560        O  0.78265111  0.69453633  0.81501518    -0.95500
O561        O  0.72149496  0.68041529  0.78563351    -0.91300
O562        O  0.70193352  0.68792598  0.73849404    -0.84400
C563        C  0.70818402  0.67135955  0.76136431     1.10700
O564        O  0.67515762  0.83179148  0.82040118    -0.97500
Zr565      Zr  0.68209260  0.79304059  0.78263551     1.88900
O566        O  0.65392439  0.73567693  0.72654733    -0.74100
O567        O  0.70815252  0.70694024  0.84080562    -0.53400
O568        O  0.65539396  0.77220918  0.82607464    -0.98100
O569        O  0.64913780  0.83295414  0.76405094    -0.55300
O570        O  0.63759095  0.76793490  0.76216701    -0.74700
C571        C  0.63292805  0.74798295  0.74201730     0.97700
O572        O  0.71374530  0.70620851  0.68022653    -0.63500
O573        O  0.77492737  0.83332421  0.67838809    -0.58300
O574        O  0.69580039  0.75755510  0.67355293    -0.95000
O575        O  0.71674421  0.80381788  0.66747439    -0.93400
O576        O  0.82451759  0.76966226  0.69194880    -0.93700
O577        O  0.80197790  0.71355186  0.70025166    -0.92500
C578        C  0.70197802  0.78093218  0.65779708     1.16500
H579        H  0.79879666  0.81818930  0.73770926     0.32500
H580        H  0.75849165  0.70336556  0.74563595     0.43300
H581        H  0.67677817  0.79478099  0.71802793     0.36900
H582        H  0.72240475  0.78318246  0.83209609     0.33300
H583        H  0.84810285  0.71733529  0.74760631     0.25100
H584        H  0.72193891  0.69682544  0.85534402     0.31100
H585        H  0.63464665  0.78061419  0.82474247     0.37000
H586        H  0.80926687  0.77954146  0.67878522     0.31400
H587        H  0.76499844  0.84966228  0.66684928     0.30300
H588        H  0.68301623  0.84859587  0.69915697     0.32000
H589        H  0.64071800  0.82575604  0.74464622     0.31000
H590        H  0.78781843  0.71863855  0.68355476     0.35000
H591        H  0.73145124  0.69342813  0.68508378     0.27700
H592        H  0.78942891  0.84651023  0.84423312     0.31900
H593        H  0.65293997  0.83336301  0.82341518     0.34800
H594        H  0.79150096  0.84331116  0.68966785     0.27400
H595        H  0.69596340  0.69258458  0.68094325     0.40300
H596        H  0.78626093  0.68352938  0.79607938     0.30300
H597        H  0.83292198  0.72186434  0.77910508     0.37900
H598        H  0.66324968  0.84928628  0.75825639     0.29800
H599        H  0.69997029  0.72422292  0.85191401     0.29800
H600        H  0.75476637  0.83960080  0.84990870     0.30100
C601        C  0.50964624  0.71543843  0.70994927     0.79300
N602        N  0.50572966  0.69567140  0.68726037    -0.79000
C603        C  0.47794624  0.68436661  0.68066684     0.81700
N604        N  0.45375127  0.69218479  0.69772174    -0.79000
C605        C  0.45728020  0.71169329  0.72095918     0.81800
N606        N  0.48533785  0.72312387  0.72706885    -0.80700
C607        C  0.27485530  0.49962611  0.69918729     0.79300
N608        N  0.29458830  0.49807818  0.67584172    -0.79000
C609        C  0.30824665  0.52304341  0.66507513     0.81700
N610        N  0.30280045  0.54962329  0.67829200    -0.79000
C611        C  0.28399477  0.55137737  0.70237989     0.81800
N612        N  0.26978021  0.52627966  0.71273566    -0.80700
C613        C  0.51189063  0.35054136  0.71870539     0.79300
N614        N  0.48623186  0.34198467  0.73351779    -0.79000
C615        C  0.45850902  0.34761253  0.72109038     0.81700
N616        N  0.45666000  0.36108311  0.69347432    -0.79000
C617        C  0.48203594  0.36915060  0.67805161     0.81800
N618        N  0.50952035  0.36371415  0.69104225    -0.80700
C619        C  0.67804831  0.50535441  0.70833411     0.79300
N620        N  0.65672756  0.50701855  0.68625148    -0.79000
C621        C  0.64360412  0.53327923  0.67884305     0.81700
N622        N  0.65147848  0.55832782  0.69403696    -0.79000
C623        C  0.67227832  0.55704753  0.71687234     0.81800
N624        N  0.68600264  0.53052319  0.72358548    -0.80700
C625        C  0.50660708  0.35666092  0.27361200     0.79300
N626        N  0.47869735  0.34945332  0.26232776    -0.79000
C627        C  0.45309720  0.36028441  0.27541833     0.81700
N628        N  0.45573607  0.37783206  0.30021449    -0.79000
C629        C  0.48339965  0.38552668  0.31150104     0.81800
N630        N  0.50884523  0.37478507  0.29809899    -0.80700
C631        C  0.69346845  0.51353255  0.31272394     0.79300
N632        N  0.70935779  0.53899209  0.30573136    -0.79000
C633        C  0.70270159  0.56522093  0.31989882     0.81700
N634        N  0.67967951  0.56581983  0.34029873    -0.79000
C635        C  0.66391036  0.54061548  0.34723551     0.81800
N636        N  0.67084639  0.51476055  0.33333702    -0.80700
C637        C  0.50480941  0.75783374  0.33190112     0.79300
N638        N  0.50529562  0.73144562  0.34728196    -0.79000
C639        C  0.47917063  0.71703767  0.35469328     0.81700
N640        N  0.45226831  0.72968658  0.34689333    -0.79000
C641        C  0.45118453  0.75580390  0.33096042     0.81800
N642        N  0.47764263  0.76986252  0.32338879    -0.80700
C643        C  0.27919713  0.50977345  0.30340470     0.79300
N644        N  0.30442986  0.51131907  0.32108293    -0.79000
C645        C  0.31439801  0.53796830  0.33162717     0.81700
N646        N  0.29827857  0.56298425  0.32535768    -0.79000
C647        C  0.27299577  0.56169629  0.30780041     0.81800
N648        N  0.26333279  0.53500911  0.29684238    -0.80700
C649        C  0.67148152  0.73992890  0.48649584     0.79300
N650        N  0.67877442  0.75524321  0.51188723    -0.79000
C651        C  0.66601908  0.74764593  0.53878975     0.81700
N652        N  0.64542757  0.72482792  0.53994217    -0.79000
C653        C  0.63745643  0.70980751  0.51453374     0.81800
N654        N  0.65073573  0.71749700  0.48800811    -0.80700
C655        C  0.70144690  0.34804565  0.47247806     0.79300
N656        N  0.71649225  0.34086631  0.49838335    -0.79000
C657        C  0.70631714  0.35112129  0.52531508     0.81700
N658        N  0.68075658  0.36819072  0.52613867    -0.79000
C659        C  0.66528023  0.37514247  0.50034802     0.81800
N660        N  0.67598167  0.36507891  0.47359993    -0.80700
C661        C  0.26647618  0.71563651  0.49093692     0.79300
N662        N  0.29066153  0.69705624  0.49044336    -0.79000
C663        C  0.30004000  0.68295600  0.51589590     0.81700
N664        N  0.28533083  0.68796687  0.54221720    -0.79000
C665        C  0.26105937  0.70674989  0.54319702     0.81800
N666        N  0.25154937  0.72036181  0.51724566    -0.80700
C667        C  0.25878262  0.34660980  0.47668884     0.79300
N668        N  0.25108810  0.33548749  0.50427285    -0.79000
C669        C  0.26809058  0.34236743  0.52900134     0.81700
N670        N  0.29306727  0.36022079  0.52593557    -0.79000
C671        C  0.30086786  0.37160202  0.49844745     0.81800
N672        N  0.28362163  0.36461194  0.47392394    -0.80700
O673        O  0.90015838  0.97976059  0.99953746    -0.87400
O674        O  0.07273080  0.99188329  0.00114600    -0.87600
O675        O  0.98802076  0.95210307  0.95012196    -0.89200
O676        O  0.98673082  0.94618336  0.04702792    -0.88000
O677        O  0.98291034  0.97927303  0.08593668    -0.87600
O678        O  0.98655321  0.99045967  0.91542663    -0.89000
O679        O  0.03821807  0.95325982  0.99998082    -0.87400
O680        O  0.93956075  0.94607229  0.99972451    -0.87000
Zr681      Zr  0.98681450  0.97415329  0.00002646     2.84300
O682        O  0.01478811  0.00400548  0.03314555    -1.09000
O683        O  0.95437187  0.00349066  0.97008040    -1.09700
C684        C  0.91114162  0.95293273  0.99988039     1.05700
C685        C  0.06562826  0.96387960  0.00026595     1.05600
C686        C  0.98794130  0.96257235  0.92290228     1.08600
C687        C  0.98473000  0.95236866  0.07533102     1.06400
H688        H  0.02978604  0.99651304  0.95885212     0.32000
O689        O  0.01621836  0.00743058  0.97177228    -1.30000
H690        H  0.94115585  0.98683864  0.04244156     0.31600
O691        O  0.95325623  0.00060465  0.03070092    -1.31600
O692        O  0.06652499  0.08747872  0.00459753    -0.87400
O693        O  0.89391873  0.07802022  0.00226630    -0.88900
O694        O  0.03334547  0.04146408  0.91843479    -0.87500
O695        O  0.02998321  0.02930602  0.09018642    -0.87500
O696        O  0.93043575  0.02671086  0.08676486    -0.87200
O697        O  0.93571521  0.03440675  0.91590039    -0.87000
O698        O  0.98079320  0.12175105  0.95593682    -0.87400
O699        O  0.97747287  0.11627698  0.05694915    -0.86900
O700        O  0.98303283  0.08596290  0.91913984    -0.87900
O701        O  0.97810259  0.07722056  0.09105691    -0.87100
O702        O  0.06910654  0.04193539  0.95627671    -0.87500
O703        O  0.89760079  0.03011695  0.95076942    -0.87200
O704        O  0.89485600  0.02706987  0.04875144    -0.86900
O705        O  0.06731649  0.03501863  0.05450637    -0.87300
O706        O  0.02855591  0.12254707  0.00541150    -0.87600
O707        O  0.92821601  0.11689889  0.00429748    -0.88900
Zr708      Zr  0.04368499  0.03794571  0.00473114     2.83100
Zr709      Zr  0.92147579  0.03063661  0.00076029     2.83500
Zr710      Zr  0.98398424  0.03727023  0.94257384     2.84100
Zr711      Zr  0.98111629  0.03025585  0.06385850     2.83400
Zr712      Zr  0.97954099  0.09543727  0.00548526     2.84200
O713        O  0.95010119  0.06088906  0.03338523    -1.09500
O714        O  0.01214747  0.06794231  0.97483938    -1.09000
C715        C  0.05688204  0.11468626  0.00422214     1.05700
C716        C  0.90083291  0.10613425  0.00352780     1.08300
C717        C  0.06098222  0.04262659  0.92823150     1.05800
C718        C  0.05804787  0.03136745  0.08193725     1.06200
C719        C  0.90267444  0.02578920  0.07686726     1.05800
C720        C  0.90755210  0.03140132  0.92336514     1.05300
C721        C  0.98205265  0.11328355  0.92796543     1.05800
C722        C  0.97730202  0.10534989  0.08421863     1.05300
H723        H  0.93796998  0.07684710  0.96017466     0.32000
O724        O  0.95098007  0.06470846  0.97285975    -1.30600
H725        H  0.02269545  0.07691001  0.04938719     0.32000
O726        O  0.01076455  0.06466898  0.03587713    -1.32000
O727        O  0.47584928  0.60883688  0.55831765    -0.87400
O728        O  0.48239431  0.43888349  0.54375149    -0.87600
O729        O  0.42800012  0.52008550  0.58429386    -0.89200
O730        O  0.52639989  0.52513174  0.59009719    -0.88000
O731        O  0.56515766  0.52997073  0.55595948    -0.87600
O732        O  0.39303499  0.52317139  0.54576479    -0.89000
O733        O  0.48039090  0.47222619  0.58298460    -0.87400
O734        O  0.47575033  0.56919954  0.59163952    -0.87000
Zr735      Zr  0.47853819  0.52314051  0.56249453     2.84300
O736        O  0.51149688  0.49677307  0.53123339    -1.09000
O737        O  0.44830800  0.55535658  0.53347829    -1.09700
C738        C  0.47538222  0.59744340  0.58519110     1.05700
C739        C  0.48165377  0.44549518  0.57216035     1.05600
C740        C  0.40055156  0.52066319  0.57389057     1.08600
C741        C  0.55473050  0.52771708  0.58310017     1.06400
H742        H  0.43753885  0.48097502  0.53879128     0.32000
O743        O  0.45048797  0.49476229  0.52790967    -1.30000
H744        H  0.52092987  0.56921312  0.55091907     0.31600
O745        O  0.50941853  0.55738613  0.53674041    -1.31600
O746        O  0.48504184  0.44947983  0.44436195    -0.87400
O747        O  0.48175749  0.61842217  0.46066986    -0.88900
O748        O  0.39682019  0.47859986  0.49328779    -0.87500
O749        O  0.56902571  0.48340444  0.50588895    -0.87500
O750        O  0.56523534  0.58115858  0.51007122    -0.87200
O751        O  0.39437416  0.57482468  0.50261500    -0.87000
O752        O  0.43699422  0.53664804  0.41403018    -0.87400
O753        O  0.53580383  0.53947358  0.41952304    -0.86900
O754        O  0.39840677  0.53256412  0.44858653    -0.87900
O755        O  0.57024251  0.53591550  0.45848392    -0.87100
O756        O  0.43374325  0.44250614  0.49279423    -0.87500
O757        O  0.42934522  0.61256078  0.50800237    -0.87200
O758        O  0.52707548  0.61588128  0.51230526    -0.86900
O759        O  0.53431305  0.44556999  0.49871760    -0.87300
O760        O  0.48666439  0.48963563  0.41166304    -0.87600
O761        O  0.48407859  0.58593883  0.42079815    -0.88900
Zr762      Zr  0.48343020  0.46814398  0.49649212     2.83100
Zr763      Zr  0.47925086  0.58924334  0.50732243     2.83500
Zr764      Zr  0.42083928  0.52728346  0.49851109     2.84100
Zr765      Zr  0.54253151  0.53120371  0.50567893     2.83400
Zr766      Zr  0.48504918  0.53510711  0.44142185     2.84200
O767        O  0.51287752  0.56344661  0.47610125    -1.09500
O768        O  0.45374311  0.50088572  0.46712505    -1.09000
C769        C  0.48588340  0.46131631  0.41754407     1.05700
C770        C  0.48314108  0.61239966  0.43224373     1.08300
C771        C  0.40560959  0.45111241  0.49240392     1.05800
C772        C  0.56168882  0.45556235  0.50302955     1.06200
C773        C  0.55530293  0.60825713  0.51209762     1.05800
C774        C  0.40185873  0.60256775  0.50597638     1.05300
C775        C  0.40868953  0.53590363  0.42153183     1.05800
C776        C  0.56316355  0.53885939  0.43028730     1.05300
H777        H  0.43904753  0.57471368  0.46033463     0.32000
O778        O  0.45149350  0.56138992  0.47232858    -1.30600
H779        H  0.52866893  0.49177427  0.45800777     0.32000
O780        O  0.51486162  0.50253027  0.47082115    -1.32000
C781        C  0.32814963  0.39120214  0.49525627    -0.07000
C782        C  0.35515795  0.38337456  0.51044124    -0.18200
C783        C  0.38121105  0.40165529  0.50907914     0.10200
C784        C  0.38076335  0.42833269  0.49162783    -0.07000
C785        C  0.35406943  0.43545740  0.47558285    -0.18200
C786        C  0.32787952  0.41768403  0.47758144     0.10200
S787        S  0.41339858  0.39069920  0.53180033    -0.33200
S788        S  0.29425101  0.43161249  0.45901915    -0.33200
H789        H  0.27459035  0.42387479  0.48281577     0.28200
H790        H  0.41814831  0.41942041  0.54364074     0.28200
H791        H  0.35577214  0.36315777  0.52407947     0.18800
H792        H  0.35312656  0.45590543  0.46230939     0.18800
C793        C  0.32627308  0.66263087  0.51457130    -0.07000
C794        C  0.35229233  0.67202641  0.49882994    -0.18200
C795        C  0.37730976  0.65311817  0.49541424     0.10200
C796        C  0.37660256  0.62413888  0.50850094    -0.07000
C797        C  0.35063069  0.61501579  0.52450054    -0.18200
C798        C  0.32546741  0.63367686  0.52733270     0.10200
S799        S  0.40849705  0.66690717  0.47289850    -0.33200
S800        S  0.29236529  0.61847859  0.54576024    -0.33200
H801        H  0.27140754  0.63092552  0.52517592     0.28200
H802        H  0.41408093  0.63953546  0.45858228     0.28200
H803        H  0.35291930  0.69414069  0.48864705     0.18800
H804        H  0.34965741  0.59284860  0.53446258     0.18800
C805        C  0.63749527  0.39424183  0.50148430    -0.07000
C806        C  0.63569529  0.41618319  0.52395651    -0.18200
C807        C  0.61087181  0.43577979  0.52556854     0.10200
C808        C  0.58698839  0.43359702  0.50419443    -0.07000
C809        C  0.58802191  0.41089949  0.48256568    -0.18200
C810        C  0.61283048  0.39122973  0.48093472     0.10200
S811        S  0.60946261  0.46274036  0.55575486    -0.33200
S812        S  0.61190086  0.36210093  0.45291800    -0.33200
H813        H  0.58101972  0.36492905  0.44507992     0.28200
H814        H  0.63835599  0.45680793  0.56808057     0.28200
H815        H  0.65409645  0.41828278  0.54011665     0.18800
H816        H  0.56965193  0.40913405  0.46630996     0.18800
C817        C  0.61627410  0.68380178  0.51543978    -0.07000
C818        C  0.62083386  0.66076050  0.49450049    -0.18200
C819        C  0.60205428  0.63553350  0.49366377     0.10200
C820        C  0.57774371  0.63285758  0.51411887    -0.07000
C821        C  0.57303332  0.65572141  0.53515516    -0.18200
C822        C  0.59178499  0.68114032  0.53596119     0.10200
S823        S  0.60855248  0.60881551  0.46421136    -0.33200
S824        S  0.58185947  0.70992946  0.56235352    -0.33200
H825        H  0.58660366  0.73359642  0.54177357     0.28200
H826        H  0.61614892  0.58575380  0.48462533     0.28200
H827        H  0.63926993  0.66230040  0.47846516     0.18800
H828        H  0.55407269  0.65410297  0.55062955     0.18800
C829        C  0.34055319  0.53942483  0.35244632    -0.07000
C830        C  0.33828601  0.55796943  0.37774051    -0.18200
C831        C  0.36091497  0.55832940  0.39989030     0.10200
C832        C  0.38612781  0.53911829  0.39721146    -0.07000
C833        C  0.38921339  0.52168140  0.37125321    -0.18200
C834        C  0.36690626  0.52189054  0.34867974     0.10200
S835        S  0.35654035  0.58419949  0.43062896    -0.33200
S836        S  0.37379380  0.49984479  0.31551445    -0.33200
H837        H  0.35912295  0.51954957  0.29532308     0.28200
H838        H  0.38775795  0.59030555  0.43394027     0.28200
H839        H  0.31846629  0.57196314  0.38058533     0.18800
H840        H  0.40888637  0.50741043  0.36878064     0.18800
C841        C  0.48325932  0.63802109  0.41116876    -0.07000
C842        C  0.45860436  0.64193346  0.39144233    -0.18200
C843        C  0.45699423  0.66676275  0.37201287     0.10200
C844        C  0.48034525  0.68875214  0.37268170    -0.07000
C845        C  0.50549838  0.68405321  0.39191431    -0.18200
C846        C  0.50720952  0.65895359  0.41100976     0.10200
S847        S  0.42512676  0.66816899  0.34632759    -0.33200
S848        S  0.54014758  0.65362266  0.43494098    -0.33200
H849        H  0.55806822  0.67646184  0.42207336     0.28200
H850        H  0.44255108  0.67788141  0.32153434     0.28200
H851        H  0.44039871  0.62552787  0.39125488     0.18800
H852        H  0.52360783  0.70047206  0.39259501     0.18800
C853        C  0.63912963  0.54109199  0.36951385    -0.07000
C854        C  0.61560195  0.56190474  0.36579701    -0.18200
C855        C  0.59044389  0.56186203  0.38510582     0.10200
C856        C  0.58878295  0.54058845  0.40887184    -0.07000
C857        C  0.61252133  0.52001380  0.41266043    -0.18200
C858        C  0.63752200  0.51998650  0.39335865     0.10200
S859        S  0.56169567  0.58978148  0.37843280    -0.33200
S860        S  0.66674591  0.49265996  0.40071505    -0.33200
H861        H  0.69109676  0.51109742  0.39174475     0.28200
H862        H  0.55450515  0.59369579  0.40900416     0.28200
H863        H  0.61661977  0.57804190  0.34743827     0.18800
H864        H  0.61149527  0.50360264  0.43078161     0.18800
C865        C  0.48523530  0.40486334  0.33868377    -0.07000
C866        C  0.46428435  0.39992071  0.36211610    -0.18200
C867        C  0.46410739  0.41772687  0.38804155     0.10200
C868        C  0.48559820  0.44107736  0.39113357    -0.07000
C869        C  0.50651841  0.44613366  0.36773068    -0.18200
C870        C  0.50654511  0.42846818  0.34166245     0.10200
S871        S  0.43500531  0.41029614  0.41569562    -0.33200
S872        S  0.53346291  0.43813824  0.31259354    -0.33200
H873        H  0.51308086  0.43348801  0.28849651     0.28200
H874        H  0.42955304  0.44046731  0.42249409     0.28200
H875        H  0.44763977  0.38211565  0.36011923     0.18800
H876        H  0.52286187  0.46422255  0.36965979     0.18800
C877        C  0.62042482  0.53376191  0.65490348    -0.07000
C878        C  0.59567212  0.51416514  0.65769968    -0.18200
C879        C  0.57401737  0.51151568  0.63473194     0.10200
C880        C  0.57700821  0.52901596  0.60812864    -0.07000
C881        C  0.60167193  0.54896919  0.60558959    -0.18200
C882        C  0.62345510  0.55137739  0.62857176     0.10200
S883        S  0.54400681  0.48454489  0.64059923    -0.33200
S884        S  0.65514376  0.57633675  0.62248873    -0.33200
H885        H  0.67698826  0.55776951  0.63627388     0.28200
H886        H  0.54238035  0.47575823  0.61031766     0.28200
H887        H  0.59349252  0.50037351  0.67782505     0.18800
H888        H  0.60409969  0.56270869  0.58546833     0.18800
C889        C  0.48048019  0.38481636  0.64788787    -0.07000
C890        C  0.50810038  0.39199850  0.63338014    -0.18200
C891        C  0.50908074  0.40937301  0.60694554     0.10200
C892        C  0.48188531  0.42079492  0.59461526    -0.07000
C893        C  0.45420453  0.41167022  0.60721103    -0.18200
C894        C  0.45294437  0.39372099  0.63343687     0.10200
S895        S  0.54599642  0.41645497  0.59072409    -0.33200
S896        S  0.41586031  0.38348588  0.64780439    -0.33200
H897        H  0.39836303  0.39583708  0.62418653     0.28200
H898        H  0.53615128  0.42573708  0.56201172     0.28200
H899        H  0.52949342  0.38454706  0.64293599     0.18800
H900        H  0.43342285  0.41946073  0.59685048     0.18800
C901        C  0.32997823  0.52105090  0.64016609    -0.07000
C902        C  0.35330993  0.49992850  0.64239811    -0.18200
C903        C  0.37615877  0.49869121  0.62069536     0.10200
C904        C  0.37571632  0.51896458  0.59603964    -0.07000
C905        C  0.35168030  0.53933751  0.59328265    -0.18200
C906        C  0.32886057  0.54059596  0.61504923     0.10200
S907        S  0.40501762  0.47066848  0.62573917    -0.33200
S908        S  0.29890575  0.56747948  0.60950274    -0.33200
H909        H  0.27581885  0.54956651  0.62213832     0.28200
H910        H  0.40873453  0.46565089  0.59468253     0.28200
H911        H  0.35413993  0.48472912  0.66157557     0.18800
H912        H  0.35104745  0.55487034  0.57441474     0.18800
C913        C  0.47523956  0.66187079  0.65665024    -0.07000
C914        C  0.49593645  0.63810559  0.65726361    -0.18200
C915        C  0.49620489  0.61666236  0.63456008     0.10200
C916        C  0.47512386  0.61869652  0.61049225    -0.07000
C917        C  0.45417425  0.64233443  0.60993168    -0.18200
C918        C  0.45398085  0.66393463  0.63269967     0.10200
S919        S  0.52504803  0.58821990  0.63694267    -0.33200
S920        S  0.42685730  0.69390236  0.62918694    -0.33200
H921        H  0.44551523  0.71602799  0.64202994     0.28200
H922        H  0.53192552  0.58897384  0.60597410     0.28200
H923        H  0.51242634  0.63645621  0.67546807     0.18800
H924        H  0.43803183  0.64413411  0.59144194     0.18800
C925        C  0.69177790  0.78046331  0.62609322    -0.07000
C926        C  0.71374936  0.77870674  0.60340262    -0.18200
C927        C  0.70580356  0.77025282  0.57398210     0.10200
C928        C  0.67519672  0.76278599  0.56714614    -0.07000
C929        C  0.65302829  0.76681589  0.58944724    -0.18200
C930        C  0.66093825  0.77590157  0.61859106     0.10200
S931        S  0.73626192  0.76602234  0.54741434    -0.33200
S932        S  0.63076810  0.78035448  0.64554611    -0.33200
H933        H  0.64649213  0.80009776  0.66466774     0.28200
H934        H  0.72454489  0.78799755  0.52768905     0.28200
H935        H  0.73750291  0.78207667  0.60908100     0.18800
H936        H  0.62939531  0.76199522  0.58440214     0.18800
C937        C  0.69853670  0.63992622  0.75833525    -0.07000
C938        C  0.66820050  0.63492489  0.74996599    -0.18200
C939        C  0.65859571  0.60747643  0.73855640     0.10200
C940        C  0.68007242  0.58449516  0.73391539    -0.07000
C941        C  0.71009387  0.58881178  0.74416029    -0.18200
C942        C  0.71941619  0.61613830  0.75662877     0.10200
S943        S  0.61854286  0.60345078  0.73066070    -0.33200
S944        S  0.75873805  0.62033592  0.76714907    -0.33200
H945        H  0.75231162  0.63425890  0.79471295     0.28200
H946        H  0.61702672  0.57341400  0.74026390     0.28200
H947        H  0.65194442  0.65300738  0.75149506     0.18800
H948        H  0.72674718  0.57130093  0.74127302     0.18800
C949        C  0.60122204  0.73932289  0.73491936    -0.07000
C950        C  0.59378511  0.73398851  0.70462452    -0.18200
C951        C  0.56396525  0.72818174  0.69555502     0.10200
C952        C  0.54069290  0.72610606  0.71749045    -0.07000
C953        C  0.54812411  0.73134205  0.74789751    -0.18200
C954        C  0.57805538  0.73749972  0.75687091     0.10200
S955        S  0.55732012  0.72516857  0.65544669    -0.33200
S956        S  0.58542521  0.74030599  0.79680363    -0.33200
H957        H  0.61378129  0.72591336  0.79583909     0.28200
H958        H  0.52934859  0.74028635  0.65598052     0.28200
H959        H  0.61129448  0.73522062  0.68758899     0.18800
H960        H  0.53078445  0.72919240  0.76507270     0.18800
C961        C  0.74060494  0.32324454  0.61197803    -0.07000
C962        C  0.73809387  0.35375526  0.60498919    -0.18200
C963        C  0.72871510  0.36360981  0.57637393     0.10200
C964        C  0.72181296  0.34247662  0.55382490    -0.07000
C965        C  0.72716749  0.31203638  0.55985454    -0.18200
C966        C  0.73605727  0.30218226  0.58876651     0.10200
S967        S  0.72565220  0.40340934  0.57023426    -0.33200
S968        S  0.73910176  0.26245639  0.59514860    -0.33200
H969        H  0.72479045  0.26233984  0.62346446     0.28200
H970        H  0.73160268  0.40274107  0.53907544     0.28200
H971        H  0.74283842  0.37004118  0.62223227     0.18800
H972        H  0.72230036  0.29563742  0.54259518     0.18800
C973        C  0.60194026  0.32542159  0.74671858    -0.07000
C974        C  0.59664115  0.35404185  0.73456441    -0.18200
C975        C  0.56736350  0.36362496  0.72708170     0.10200
C976        C  0.54236589  0.34410311  0.73153164    -0.07000
C977        C  0.54737133  0.31623809  0.74552114    -0.18200
C978        C  0.57683078  0.30644109  0.75252815     0.10200
S979        S  0.56368405  0.40099740  0.71186199    -0.33200
S980        S  0.58092472  0.26841504  0.76559559    -0.33200
H981        H  0.60551602  0.26183243  0.74662828     0.28200
H982        H  0.53514830  0.40635444  0.72488849     0.28200
H983        H  0.61565884  0.36893480  0.73023927     0.18800
H984        H  0.52846406  0.30098705  0.74884851     0.18800
C985        C  0.71128907  0.41627578  0.72369404    -0.07000
C986        C  0.70992164  0.43619543  0.74805833    -0.18200
C987        C  0.69978920  0.46566136  0.74399661     0.10200
C988        C  0.69195174  0.47591076  0.71471260    -0.07000
C989        C  0.69508313  0.45641051  0.69026382    -0.18200
C990        C  0.70445908  0.42698547  0.69436577     0.10200
S991        S  0.69478468  0.48789764  0.77730519    -0.33200
S992        S  0.70727014  0.40447743  0.66102999    -0.33200
H993        H  0.73365262  0.38960207  0.67094854     0.28200
H994        H  0.66568907  0.49806340  0.76891564     0.28200
H995        H  0.71496750  0.42825256  0.77070664     0.18800
H996        H  0.68970601  0.46402738  0.66756310     0.18800
C997        C  0.23248848  0.72690895  0.63342116    -0.07000
C998        C  0.22573473  0.74714212  0.61005688    -0.18200
C999        C  0.23228642  0.74044326  0.57993505     0.10200
C1000       C  0.24679098  0.71305247  0.57294068    -0.07000
C1001       C  0.25093918  0.69189386  0.59628691    -0.18200
C1002       C  0.24362743  0.69832480  0.62617781     0.10200
S1003       S  0.22354778  0.76887442  0.55229916    -0.33200
S1004       S  0.24965822  0.66929694  0.65413541    -0.33200
H1005       H  0.22712624  0.67909774  0.67415091     0.28200
H1006       H  0.20483060  0.74967353  0.53529958     0.28200
H1007       H  0.21678026  0.76899337  0.61544402     0.18800
H1008       H  0.26077156  0.67030139  0.59141685     0.18800
C1009       C  0.37416707  0.73113446  0.76716625    -0.07000
C1010       C  0.39540594  0.75413953  0.76234373    -0.18200
C1011       C  0.42371792  0.74828813  0.74922513     0.10200
C1012       C  0.43074406  0.71887423  0.74008467    -0.07000
C1013       C  0.41038119  0.69565081  0.74721353    -0.18200
C1014       C  0.38253252  0.70141289  0.76100651     0.10200
S1015       S  0.44814743  0.77968376  0.74130225    -0.33200
S1016       S  0.35792622  0.67006291  0.76899501    -0.33200
H1017       H  0.34098545  0.68425905  0.79155149     0.28200
H1018       H  0.47164711  0.76877085  0.75997085     0.28200
H1019       H  0.38902491  0.77708806  0.76665360     0.18800
H1020       H  0.41583161  0.67285122  0.74122642     0.18800
C1021       C  0.26369229  0.63885280  0.73558699    -0.07000
C1022       C  0.29345541  0.63168729  0.72706731    -0.18200
C1023       C  0.30113447  0.60297232  0.71791730     0.10200
C1024       C  0.27836124  0.58065017  0.71631882    -0.07000
C1025       C  0.24880124  0.58739726  0.72572880    -0.18200
C1026       C  0.24111663  0.61623173  0.73489877     0.10200
S1027       S  0.34058653  0.59633625  0.70935092    -0.33200
S1028       S  0.20164069  0.62309900  0.74261157    -0.33200
H1029       H  0.20065925  0.64970403  0.72545846     0.28200
H1030       H  0.34090515  0.56705505  0.72120398     0.28200
H1031       H  0.31105988  0.64864127  0.72757853     0.18800
H1032       H  0.23109273  0.57055444  0.72426367     0.18800
C1033       C  0.24278600  0.31581378  0.61914237    -0.07000
C1034       C  0.27165507  0.30872373  0.60778172    -0.18200
C1035       C  0.28008960  0.31612648  0.57829820     0.10200
C1036       C  0.25921461  0.33097755  0.55917969    -0.07000
C1037       C  0.22983778  0.33697786  0.56996477    -0.18200
C1038       C  0.22162369  0.33012942  0.59989217     0.10200
S1039       S  0.31784565  0.30588639  0.56659384    -0.33200
S1040       S  0.18502268  0.34244584  0.61280367    -0.33200
H1041       H  0.19500530  0.35058553  0.64183661     0.28200
H1042       H  0.31043505  0.30161959  0.53601459     0.28200
H1043       H  0.28805853  0.29746572  0.62220729     0.18800
H1044       H  0.21377563  0.34865087  0.55552391     0.18800
C1045       C  0.25027075  0.41352664  0.73171287    -0.07000
C1046       C  0.24648074  0.42054222  0.70107893    -0.18200
C1047       C  0.25128564  0.44944268  0.69032000     0.10200
C1048       C  0.26089548  0.47187857  0.71051180    -0.07000
C1049       C  0.26217650  0.46553133  0.74159600    -0.18200
C1050       C  0.25728769  0.43640526  0.75240913     0.10200
S1051       S  0.24528623  0.45602894  0.65047352    -0.33200
S1052       S  0.26324144  0.42935875  0.79211895    -0.33200
H1053       H  0.27742001  0.40152646  0.78834516     0.28200
H1054       H  0.23787426  0.48644212  0.65325744     0.28200
H1055       H  0.24013355  0.40317693  0.68527370     0.18800
H1056       H  0.26955751  0.48266053  0.75720012     0.18800
C1057       C  0.37294052  0.31953452  0.75816351    -0.07000
C1058       C  0.37821421  0.34977120  0.75113974    -0.18200
C1059       C  0.40645077  0.35970586  0.74051633     0.10200
C1060       C  0.43028368  0.33906141  0.73708176    -0.07000
C1061       C  0.42591302  0.30926194  0.74644042    -0.18200
C1062       C  0.39733989  0.29913401  0.75636633     0.10200
S1063       S  0.41178855  0.39880306  0.73123431    -0.33200
S1064       S  0.39289651  0.25965492  0.76368346    -0.33200
H1065       H  0.36398082  0.25708149  0.75030862     0.28200
H1066       H  0.38150843  0.40770199  0.73554913     0.28200
H1067       H  0.35956210  0.36540751  0.75264632     0.18800
H1068       H  0.44419233  0.29332601  0.74389378     0.18800
C1069       C  0.12980254  0.17964006  0.00437676    -0.07000
C1070       C  0.12956007  0.15620822  0.98348845    -0.18200
C1071       C  0.10540099  0.13585968  0.98190840     0.10200
C1072       C  0.08067249  0.13831789  0.00206324    -0.07000
C1073       C  0.08014161  0.16262238  0.02188264    -0.18200
C1074       C  0.10422766  0.18330462  0.02321401     0.10200
S1075       S  0.10739794  0.10774411  0.95303963    -0.33200
S1076       S  0.10043026  0.21427988  0.04863874    -0.33200
H1077       H  0.11410871  0.23525016  0.02909775     0.28200
H1078       H  0.07587792  0.10589235  0.94821294     0.28200
H1079       H  0.14858534  0.15349725  0.96831542     0.18800
H1080       H  0.06103575  0.16534186  0.03668659     0.18800
C1081       C  0.20704307  0.23612423  0.94882430    -0.07000
C1082       C  0.23832397  0.23450736  0.94262967    -0.18200
C1083       C  0.24938389  0.23940022  0.91319721     0.10200
C1084       C  0.22867358  0.24599056  0.88951843    -0.07000
C1085       C  0.19782949  0.24975874  0.89659160    -0.18200
C1086       C  0.18696788  0.24540746  0.92571069     0.10200
S1087       S  0.28959388  0.23550083  0.90718879    -0.33200
S1088       S  0.14717647  0.25277237  0.93189430    -0.33200
H1089       H  0.15110130  0.26358215  0.96141779     0.28200
H1090       H  0.28627307  0.21893323  0.88052464     0.28200
H1091       H  0.25399800  0.22794710  0.96040522     0.18800
H1092       H  0.18177533  0.25634230  0.87914728     0.18800
C1093       C  0.70330078  0.76355256  0.39797783    -0.07000
C1094       C  0.70177021  0.73344734  0.40695096    -0.18200
C1095       C  0.69369605  0.72526494  0.43631664     0.10200
C1096       C  0.68559516  0.74756501  0.45720489    -0.07000
C1097       C  0.68856422  0.77775027  0.44880490    -0.18200
C1098       C  0.69714020  0.78599482  0.41944322     0.10200
S1099       S  0.69547976  0.68605043  0.44593926    -0.33200
S1100       S  0.69761645  0.82533841  0.41037337    -0.33200
H1101       H  0.68380633  0.82205918  0.38187359     0.28200
H1102       H  0.70435012  0.69051515  0.47614491     0.28200
H1103       H  0.70735532  0.71607219  0.39100116     0.18800
H1104       H  0.68258173  0.79503211  0.46469775     0.18800
C1105       C  0.59337240  0.78615631  0.30340696    -0.07000
C1106       C  0.58794307  0.77962669  0.33395226    -0.18200
C1107       C  0.55867078  0.77317303  0.34438921     0.10200
C1108       C  0.53405477  0.77223699  0.32373960    -0.07000
C1109       C  0.53903763  0.78088499  0.29361410    -0.18200
C1110       C  0.56843182  0.78747552  0.28317094     0.10200
S1111       S  0.55427507  0.76626394  0.38434519    -0.33200
S1112       S  0.57293406  0.79452199  0.24333853    -0.33200
H1113       H  0.59985669  0.77796105  0.24046178     0.28200
H1114       H  0.52404258  0.77625952  0.38577386     0.28200
H1115       H  0.60681217  0.77912936  0.34978470     0.18800
H1116       H  0.52036102  0.78022021  0.27758447     0.18800
C1117       C  0.73570698  0.65319480  0.29740376    -0.07000
C1118       C  0.73421833  0.64394221  0.32765499    -0.18200
C1119       C  0.72659470  0.61443821  0.33548901     0.10200
C1120       C  0.71901690  0.59363470  0.31265892    -0.07000
C1121       C  0.72276979  0.60226758  0.28231771    -0.18200
C1122       C  0.73093248  0.63185935  0.27447366     0.10200
S1123       S  0.72644508  0.60491426  0.37514741    -0.33200
S1124       S  0.73235423  0.64296019  0.23521775    -0.33200
H1125       H  0.72127513  0.61595872  0.22328541     0.28200
H1126       H  0.73324645  0.57449457  0.37116657     0.28200
H1127       H  0.73813035  0.66010084  0.34537684     0.18800
H1128       H  0.71724164  0.58642136  0.26476250     0.18800
C1129       C  0.72515543  0.32240904  0.38279529    -0.07000
C1130       C  0.70014111  0.30918936  0.39727757    -0.18200
C1131       C  0.69328427  0.31563502  0.42727106     0.10200
C1132       C  0.71141691  0.33626992  0.44321899    -0.07000
C1133       C  0.73726931  0.34856294  0.42931095    -0.18200
C1134       C  0.74418382  0.34208204  0.39912853     0.10200
S1135       S  0.66079202  0.29712565  0.44378662    -0.33200
S1136       S  0.77606386  0.36128273  0.38225032    -0.33200
H1137       H  0.76401010  0.36304481  0.35283846     0.28200
H1138       H  0.67113386  0.29814698  0.47385141     0.28200
H1139       H  0.68559120  0.29388267  0.38495303     0.18800
H1140       H  0.75110128  0.36462453  0.44143484     0.15800
C1141       C  0.70780950  0.42494313  0.27726215    -0.07000
C1142       C  0.73289585  0.44389813  0.28237431    -0.18200
C1143       C  0.72918203  0.47298693  0.29352564     0.10200
C1144       C  0.69963769  0.48417043  0.29847471    -0.07000
C1145       C  0.67459546  0.46552358  0.29225922    -0.18200
C1146       C  0.67825806  0.43632995  0.28184286     0.10200
S1147       S  0.76299276  0.49343806  0.30368640    -0.33200
S1148       S  0.64414032  0.41502330  0.27463486    -0.33200
H1149       H  0.65584904  0.40024961  0.24934810     0.28200
H1150       H  0.75139779  0.50381695  0.33122776     0.28200
H1151       H  0.75569627  0.43539330  0.27935161     0.18800
H1152       H  0.65174706  0.47370099  0.29583964     0.18800
C1153       C  0.59269665  0.32646735  0.24024544    -0.07000
C1154       C  0.57367540  0.30669563  0.25616474    -0.18200
C1155       C  0.54455549  0.31532946  0.26532981     0.10200
C1156       C  0.53455429  0.34480606  0.25968067    -0.07000
C1157       C  0.55308128  0.36420792  0.24273533    -0.18200
C1158       C  0.58166512  0.35508848  0.23234409     0.10200
S1159       S  0.52224926  0.28874697  0.28652972    -0.33200
S1160       S  0.60357474  0.38137279  0.21028615    -0.33200
H1161       H  0.62110660  0.36002254  0.19520962     0.28200
H1162       H  0.49508867  0.29471646  0.27083666     0.28200
H1163       H  0.58208472  0.28481322  0.26266285     0.18800
H1164       H  0.54544442  0.38677772  0.23801334     0.18800
C1165       C  0.24357460  0.74772346  0.40301580    -0.07000
C1166       C  0.27150256  0.75538727  0.41605279    -0.18200
C1167       C  0.27869097  0.74701047  0.44560264     0.10200
C1168       C  0.25733724  0.73062627  0.46276883    -0.07000
C1169       C  0.22859481  0.72442997  0.45045714    -0.18200
C1170       C  0.22159779  0.73245320  0.42056385     0.10200
S1171       S  0.31569476  0.75750611  0.45990019    -0.33200
S1172       S  0.18513856  0.72092226  0.40579542    -0.33200
H1173       H  0.19401194  0.71847824  0.37553306     0.28200
H1174       H  0.30756550  0.75786716  0.49056174     0.28200
H1175       H  0.28779047  0.76813513  0.40307783     0.18800
H1176       H  0.21229848  0.71153445  0.46347493     0.18800
C1177       C  0.22857142  0.64551244  0.29545200    -0.07000
C1178       C  0.23315472  0.62720357  0.27035541    -0.18200
C1179       C  0.24700508  0.59926163  0.27365633     0.10200
C1180       C  0.25540302  0.58908753  0.30275788    -0.07000
C1181       C  0.24861503  0.60652612  0.32799827    -0.18200
C1182       C  0.23511495  0.63448786  0.32465231     0.10200
S1183       S  0.25655703  0.57947145  0.23975895    -0.33200
S1184       S  0.22780588  0.65572948  0.35827637    -0.33200
H1185       H  0.20321174  0.67176097  0.34590475     0.28200
H1186       H  0.28527298  0.56991491  0.24997966     0.28200
H1187       H  0.22868609  0.63588458  0.24785203     0.18800
H1188       H  0.25454648  0.59859692  0.35045645     0.18800
C1189       C  0.42096613  0.76909051  0.32411240    -0.07000
C1190       C  0.39849942  0.76631720  0.34633506    -0.18200
C1191       C  0.36844881  0.77462395  0.34073122     0.10200
C1192       C  0.35992270  0.78577662  0.31201029    -0.07000
C1193       C  0.38256849  0.79006478  0.29010842    -0.18200
C1194       C  0.41292539  0.78187130  0.29583646     0.10200
S1195       S  0.34191464  0.76968319  0.37114258    -0.33200
S1196       S  0.43934201  0.78467361  0.26509105    -0.33200
H1197       H  0.45871966  0.80438548  0.28063892     0.28200
H1198       H  0.32255199  0.79309650  0.36213433     0.28200
H1199       H  0.40429155  0.75703763  0.36829960     0.18800
H1200       H  0.37625393  0.79802476  0.26777638     0.18800
C1201       C  0.12881623  0.03025016  0.14940092    -0.07000
C1202       C  0.10556080  0.00865805  0.15053632    -0.18200
C1203       C  0.08219779  0.00820593  0.12886314     0.10200
C1204       C  0.08177003  0.03013061  0.10563455    -0.07000
C1205       C  0.10513309  0.05149206  0.10443395    -0.18200
C1206       C  0.12868671  0.05160804  0.12566817     0.10200
S1207       S  0.05448135  0.97845808  0.13154015    -0.33200
S1208       S  0.15870374  0.07858686  0.11997904    -0.33200
H1209       H  0.18231650  0.05864451  0.12732461     0.28200
H1210       H  0.05009282  0.97537063  0.10028335     0.28200
H1211       H  0.10570062  0.99188986  0.16833744     0.18800
H1212       H  0.10523457  0.06813644  0.08650062     0.18800
C1213       C  0.20633309  0.97361547  0.20556572    -0.07000
C1214       C  0.21931859  0.96849841  0.23425785    -0.18200
C1215       C  0.22860507  0.93973118  0.24340011     0.10200
C1216       C  0.22521067  0.91547852  0.22333986    -0.07000
C1217       C  0.21453164  0.92119228  0.19397037    -0.18200
C1218       C  0.20569089  0.94975289  0.18470595     0.10200
S1219       S  0.24226095  0.93512411  0.28154584    -0.33200
S1220       S  0.19430446  0.95394568  0.14570026    -0.33200
H1221       H  0.20714526  0.98262637  0.14224587     0.28200
H1222       H  0.22493692  0.90929026  0.28753425     0.28200
H1223       H  0.22049147  0.98656330  0.25037099     0.18800
H1224       H  0.21257844  0.90296030  0.17807447     0.18800
C1225       C  0.22319583  0.31964857  0.39107059    -0.07000
C1226       C  0.22089791  0.34956511  0.39987471    -0.18200
C1227       C  0.22965794  0.35860520  0.42884820     0.10200
C1228       C  0.24191677  0.33745762  0.44931327    -0.07000
C1229       C  0.24167932  0.30712089  0.44147269    -0.18200
C1230       C  0.23216718  0.29797444  0.41268948     0.10200
S1231       S  0.22464284  0.39735223  0.43832192    -0.33200
S1232       S  0.23450044  0.25875088  0.40410151    -0.33200
H1233       H  0.20955520  0.25836392  0.38421755     0.28200
H1234       H  0.22261683  0.39272277  0.46969986     0.28200
H1235       H  0.21288633  0.36610935  0.38379960     0.18800
H1236       H  0.25059616  0.29063947  0.45721439     0.18800
C1237       C  0.36234710  0.33178841  0.25171083    -0.07000
C1238       C  0.36791121  0.36144600  0.26027793    -0.18200
C1239       C  0.39748329  0.37197658  0.26546003     0.10200
C1240       C  0.42235241  0.35204406  0.26392037    -0.07000
C1241       C  0.41699587  0.32281120  0.25369356    -0.18200
C1242       C  0.38743931  0.31270245  0.24710751     0.10200
S1243       S  0.40189578  0.41128840  0.27321362    -0.33200
S1244       S  0.38289431  0.27447520  0.23562905    -0.33200
H1245       H  0.36850727  0.28236119  0.20829440     0.28200
H1246       H  0.43021791  0.41414373  0.25881242     0.28200
H1247       H  0.34896726  0.37659068  0.26300629     0.18800
H1248       H  0.43577083  0.30732848  0.25195326     0.18800
C1249       C  0.24858660  0.42153710  0.28208132    -0.07000
C1250       C  0.25190800  0.44275555  0.25872197    -0.18200
C1251       C  0.26108568  0.47219788  0.26497820     0.10200
C1252       C  0.26724177  0.48028526  0.29508214    -0.07000
C1253       C  0.26268815  0.45948400  0.31838065    -0.18200
C1254       C  0.25277343  0.43056282  0.31231285     0.10200
S1255       S  0.26710482  0.49848266  0.23444310    -0.33200
S1256       S  0.24503351  0.40662680  0.34427570    -0.33200
H1257       H  0.22037828  0.39170345  0.33064714     0.28200
H1258       H  0.25620137  0.48002657  0.21118831     0.28200
H1259       H  0.24860164  0.43588804  0.23554680     0.18800
H1260       H  0.26657068  0.46597147  0.34162613     0.18800
C1261       C  0.22811067  0.25211174  0.11851426    -0.07000
C1262       C  0.20384198  0.26755314  0.10484935    -0.18200
C1263       C  0.19347637  0.26022053  0.07588635     0.10200
C1264       C  0.20775919  0.23711230  0.06005723    -0.07000
C1265       C  0.23319658  0.22286877  0.07277158    -0.18200
C1266       C  0.24339764  0.22989711  0.10198459     0.10200
S1267       S  0.16161821  0.27996843  0.05945450    -0.33200
S1268       S  0.27481762  0.20857761  0.11705871    -0.33200
H1269       H  0.26846851  0.21195235  0.14782260     0.28200
H1270       H  0.15286432  0.29483006  0.08587849     0.28200
H1271       H  0.19216649  0.28460012  0.11753307     0.18800
H1272       H  0.24426448  0.20517997  0.06043914     0.18800
C1273       C  0.21320738  0.14441483  0.22885341    -0.07000
C1274       C  0.20788024  0.12296304  0.25163289    -0.18200
C1275       C  0.20130876  0.09305883  0.24454535     0.10200
C1276       C  0.20010378  0.08427186  0.21399009    -0.07000
C1277       C  0.20669969  0.10547540  0.19141498    -0.18200
C1278       C  0.21341229  0.13517411  0.19842358     0.10200
S1279       S  0.19142171  0.06815826  0.27511241    -0.33200
S1280       S  0.22199186  0.16011267  0.16741013    -0.33200
H1281       H  0.24366853  0.17693851  0.18345240     0.28200
H1282       H  0.20944411  0.04448060  0.26500068     0.28200
H1283       H  0.20759146  0.12979807  0.27505017     0.18800
H1284       H  0.20602551  0.09893506  0.16791545     0.18800
C1285       C  0.97532771  0.16215591  0.16296660    -0.07000
C1286       C  0.99344754  0.17000813  0.13810283    -0.18200
C1287       C  0.99418945  0.15240270  0.11206045     0.10200
C1288       C  0.97619581  0.12620662  0.11026474    -0.07000
C1289       C  0.95788124  0.11847385  0.13510099    -0.18200
C1290       C  0.95737186  0.13588137  0.16130575     0.10200
S1291       S  0.01967335  0.16400325  0.08265070    -0.33200
S1292       S  0.93443351  0.12238277  0.19219487    -0.33200
H1293       H  0.95487093  0.13117681  0.21499608     0.28200
H1294       H  0.03025904  0.13502182  0.07663653     0.28200
H1295       H  0.00736682  0.19003093  0.13901554     0.18800
H1296       H  0.94413119  0.09833080  0.13430147     0.18800
C1297       C  0.92013727  0.21718279  0.24161145    -0.07000
C1298       C  0.89562285  0.19708734  0.23906778    -0.18200
C1299       C  0.86609244  0.20518582  0.24701176     0.10200
C1300       C  0.86033830  0.23430942  0.25766739    -0.07000
C1301       C  0.88494027  0.25375425  0.26243222    -0.18200
C1302       C  0.91467051  0.24559294  0.25459739     0.10200
S1303       S  0.83646222  0.17761860  0.24181447    -0.33200
S1304       S  0.94365491  0.27379654  0.25848015    -0.33200
H1305       H  0.96054500  0.25658117  0.27927704     0.28200
H1306       H  0.81704365  0.18881771  0.26414168     0.28200
H1307       H  0.89927556  0.17498288  0.22997165     0.18800
H1308       H  0.88071188  0.27624965  0.27025252     0.18800
C1309       C  0.03233126  0.22530594  0.23395364    -0.07000
C1310       C  0.04872799  0.24174625  0.21248479    -0.18200
C1311       C  0.07703503  0.25422416  0.21939997     0.10200
C1312       C  0.09036757  0.24914613  0.24817883    -0.07000
C1313       C  0.07326754  0.23398850  0.27028367    -0.18200
C1314       C  0.04444882  0.22196118  0.26343226     0.10200
S1315       S  0.09466476  0.27696185  0.19051873    -0.33200
S1316       S  0.02527243  0.20083514  0.29249717    -0.33200
H1317       H  0.01274503  0.17933860  0.27300745     0.28200
H1318       H  0.10962448  0.29618426  0.21076829     0.28200
H1319       H  0.03921542  0.24515775  0.19009583     0.18800
H1320       H  0.08313143  0.22987906  0.29238852     0.18800
C1321       C  0.72361488  0.92344498  0.21836442    -0.07000
C1322       C  0.72562497  0.93034829  0.18746096    -0.18200
C1323       C  0.73545825  0.95851274  0.17732158     0.10200
C1324       C  0.74453064  0.98039777  0.19841572    -0.07000
C1325       C  0.74050990  0.97433277  0.22933265    -0.18200
C1326       C  0.73007891  0.94620949  0.23949237     0.10200
S1327       S  0.73661177  0.96494195  0.13709046    -0.33200
S1328       S  0.72878637  0.93970943  0.27963225    -0.33200
H1329       H  0.70247287  0.92193628  0.27868546     0.28200
H1330       H  0.73138144  0.99590640  0.13857970     0.28200
H1331       H  0.72061818  0.91318470  0.17102424     0.18800
H1332       H  0.74728112  0.99093368  0.24575900     0.18800
C1333       C  0.76166727  0.09039997  0.19825820    -0.07000
C1334       C  0.75636558  0.09642685  0.22882194    -0.18200
C1335       C  0.75140983  0.12580625  0.23880312     0.10200
C1336       C  0.75093992  0.14964227  0.21758924    -0.07000
C1337       C  0.75585782  0.14343175  0.18700257    -0.18200
C1338       C  0.76115278  0.11425023  0.17709784     0.10200
S1339       S  0.74821786  0.13274740  0.27878302    -0.33200
S1340       S  0.76607399  0.10771552  0.13715887    -0.33200
H1341       H  0.76236955  0.13746803  0.12731081     0.28200
H1342       H  0.75093389  0.10287424  0.28854079     0.28200
H1343       H  0.75737447  0.07819004  0.24500849     0.18800
H1344       H  0.75520467  0.16159946  0.17071058     0.18800
C1345       C  0.83023135  0.02518233  0.14254608    -0.07000
C1346       C  0.82710999  0.00861633  0.11597703    -0.18200
C1347       C  0.85037960  0.00792293  0.09434576     0.10200
C1348       C  0.87781364  0.02391562  0.09956204    -0.07000
C1349       C  0.88131056  0.03937739  0.12686126    -0.18200
C1350       C  0.85800424  0.04015680  0.14827595     0.10200
S1351       S  0.84449776  0.98636838  0.06042940    -0.33200
S1352       S  0.86531967  0.06037450  0.18264372    -0.33200
H1353       H  0.84785600  0.04139832  0.20124135     0.28200
H1354       H  0.81618412  0.97393164  0.06828657     0.28200
H1355       H  0.80584242  0.99712504  0.11166836     0.18800
H1356       H  0.90219493  0.05151019  0.13135510     0.18800
C1357       C  0.03479094  0.79288230  0.19204189    -0.07000
C1358       C  0.04072838  0.79486961  0.22311842    -0.18200
C1359       C  0.06908070  0.78699433  0.23516286     0.10200
C1360       C  0.09188736  0.77617951  0.21582958    -0.07000
C1361       C  0.08535262  0.77249214  0.18505798    -0.18200
C1362       C  0.05707455  0.78066894  0.17297247     0.10200
S1363       S  0.07582498  0.79472443  0.27456942    -0.33200
S1364       S  0.05113119  0.77577920  0.13302762    -0.33200
H1365       H  0.01942260  0.77214967  0.13467133     0.28200
H1366       H  0.09774023  0.77247112  0.27938559     0.28200
H1367       H  0.02384208  0.80450810  0.23784160     0.18800
H1368       H  0.10285639  0.76439141  0.17011430     0.18800
C1369       C  0.86392200  0.79296359  0.21524192    -0.07000
C1370       C  0.87436224  0.82274525  0.21414318    -0.18200
C1371       C  0.90390400  0.83007132  0.20563019     0.10200
C1372       C  0.92406704  0.80730755  0.19692740    -0.07000
C1373       C  0.91447202  0.77733374  0.19924827    -0.18200
C1374       C  0.88464882  0.76992026  0.20811285     0.10200
S1375       S  0.91467259  0.86899439  0.20772365    -0.33200
S1376       S  0.87418646  0.73098452  0.20820449    -0.33200
H1377       H  0.84629723  0.73574223  0.19329824     0.28200
H1378       H  0.94460784  0.86347767  0.21756837     0.28200
H1379       H  0.85949587  0.84080521  0.22058596     0.18800
H1380       H  0.92983498  0.75964565  0.19280746     0.18800
C1381       C  0.98479250  0.92599752  0.09647874    -0.07000
C1382       C  0.99685668  0.89878948  0.08602149    -0.18200
C1383       C  0.99764838  0.87290840  0.10397916     0.10200
C1384       C  0.98570494  0.87356011  0.13339462    -0.07000
C1385       C  0.97322543  0.90037934  0.14396869    -0.18200
C1386       C  0.97232364  0.92634382  0.12591990     0.10200
S1387       S  0.01296649  0.83953994  0.08735285    -0.33200
S1388       S  0.95270742  0.95809487  0.14107954    -0.33200
H1389       H  0.93558875  0.96341934  0.11465818     0.28200
H1390       H  0.99305999  0.81940325  0.10175458     0.28200
H1391       H  0.00512533  0.89722182  0.06316089     0.18800
H1392       H  0.96342055  0.90092659  0.16634873     0.18800
C1393       C  0.21249362  0.91154673  0.78984830    -0.07000
C1394       C  0.18142840  0.91803832  0.79199657    -0.18200
C1395       C  0.17145440  0.94711313  0.79663757     0.10200
C1396       C  0.19301084  0.97024612  0.80020580    -0.07000
C1397       C  0.22403799  0.96404888  0.79704612    -0.18200
C1398       C  0.23405154  0.93490847  0.79221349     0.10200
S1399       S  0.13098400  0.95335505  0.79631226    -0.33200
S1400       S  0.27448618  0.92882451  0.79139555    -0.33200
H1401       H  0.27329414  0.90201400  0.80816673     0.28200
H1402       H  0.13261086  0.98176800  0.78253381     0.28200
H1403       H  0.16469489  0.90039048  0.78929391     0.18800
H1404       H  0.24066713  0.98177616  0.79979246     0.18800
C1405       C  0.19988014  0.07841511  0.78681936    -0.07000
C1406       C  0.23024322  0.08685839  0.79145142    -0.18200
C1407       C  0.24033057  0.11531206  0.78271529     0.10200
C1408       C  0.21967547  0.13509413  0.76864253    -0.07000
C1409       C  0.19026472  0.12537779  0.76156257    -0.18200
C1410       C  0.18012542  0.09721402  0.77046640     0.10200
S1411       S  0.27878837  0.12585242  0.79213571    -0.33200
S1412       S  0.14143017  0.08690903  0.76147853    -0.33200
H1413       H  0.14644142  0.05588193  0.76067748     0.28200
H1414       H  0.27181726  0.15515074  0.80093231     0.28200
H1415       H  0.24542879  0.07217729  0.80388432     0.18800
H1416       H  0.17489195  0.14020634  0.74970952     0.18800
C1417       C  0.13176432  0.03664157  0.86253431    -0.07000
C1418       C  0.10697813  0.05556022  0.85683162    -0.18200
C1419       C  0.08400921  0.05914003  0.87824922     0.10200
C1420       C  0.08560582  0.04295991  0.90579306    -0.07000
C1421       C  0.11105971  0.02501497  0.91179528    -0.18200
C1422       C  0.13420256  0.02195754  0.89070945     0.10200
S1423       S  0.05394605  0.08513548  0.86931642    -0.33200
S1424       S  0.16655366  0.99959570  0.90147031    -0.33200
H1425       H  0.18810915  0.01733513  0.88619087     0.28200
H1426       H  0.04944005  0.09454460  0.89916396     0.28200
H1427       H  0.10537267  0.06741453  0.83543998     0.18800
H1428       H  0.11278265  0.01284924  0.93298964     0.18800
C1429       C  0.93601525  0.83279125  0.78391700    -0.07000
C1430       C  0.91212580  0.85282864  0.77883747    -0.18200
C1431       C  0.88252266  0.84267061  0.77477917     0.10200
C1432       C  0.87646585  0.81170761  0.77621954    -0.07000
C1433       C  0.90049294  0.79149561  0.78009071    -0.18200
C1434       C  0.93027947  0.80175901  0.78391861     0.10200
S1435       S  0.85360255  0.87035396  0.76782530    -0.33200
S1436       S  0.95942312  0.77463333  0.79168096    -0.33200
H1437       H  0.97673852  0.78322682  0.76644048     0.28200
H1438       H  0.83807135  0.85323186  0.74622040     0.28200
H1439       H  0.91650340  0.87670086  0.77866357     0.18800
H1440       H  0.89589540  0.76768059  0.78101061     0.18800
C1441       C  0.04737028  0.84083022  0.77744099    -0.07000
C1442       C  0.05226277  0.81045023  0.77141268    -0.18200
C1443       C  0.08127800  0.79999848  0.76438052     0.10200
C1444       C  0.10577644  0.82036492  0.76310488    -0.07000
C1445       C  0.10049958  0.85091292  0.76720768    -0.18200
C1446       C  0.07147265  0.86144057  0.77355777     0.10200
S1447       S  0.08605858  0.76033153  0.75951441    -0.33200
S1448       S  0.06659312  0.90138835  0.77579407    -0.33200
H1449       H  0.03672116  0.90139844  0.76426753     0.28200
H1450       H  0.11345226  0.75842492  0.77590473     0.28200
H1451       H  0.03386412  0.79448841  0.77402468     0.18800
H1452       H  0.11924491  0.86665366  0.76569991     0.18800
C1453       C  0.99047233  0.90120642  0.84938685    -0.07000
C1454       C  0.01091168  0.89783739  0.87353358    -0.18200
C1455       C  0.01063020  0.91746081  0.89787414     0.10200
C1456       C  0.98940475  0.94106505  0.89811271    -0.07000
C1457       C  0.96902581  0.94449404  0.87390408    -0.18200
C1458       C  0.96930017  0.92488772  0.84957204     0.10200
S1459       S  0.03832080  0.91150997  0.92746921    -0.33200
S1460       S  0.94256809  0.93182993  0.81930662    -0.33200
H1461       H  0.96230296  0.92328868  0.79605539     0.28200
H1462       H  0.04421773  0.94202688  0.93231707     0.28200
H1463       H  0.02707038  0.87960760  0.87356046     0.18800
H1464       H  0.95270331  0.96259199  0.87398805     0.18800
C1465       C  0.92977961  0.22314632  0.76819300    -0.07000
C1466       C  0.90755213  0.20052699  0.76775433    -0.18200
C1467       C  0.87816306  0.20602571  0.75713448     0.10200
C1468       C  0.87034834  0.23492978  0.74675162    -0.07000
C1469       C  0.89296991  0.25702579  0.74507153    -0.18200
C1470       C  0.92237002  0.25164338  0.75621691     0.10200
S1471       S  0.85134662  0.17540087  0.75798904    -0.33200
S1472       S  0.94781528  0.28308629  0.75793881    -0.33200
H1473       H  0.95893142  0.27606597  0.78695662     0.28200
H1474       H  0.83422920  0.18568464  0.73314546     0.28200
H1475       H  0.91296222  0.17839417  0.77625226     0.18800
H1476       H  0.88698557  0.27940378  0.73766402     0.18800
C1477       C  0.04293735  0.22058574  0.76920411    -0.07000
C1478       C  0.06465023  0.19772287  0.77077544    -0.18200
C1479       C  0.09424738  0.20198705  0.76020153     0.10200
C1480       C  0.10309939  0.22993566  0.74789066    -0.07000
C1481       C  0.08088964  0.25209660  0.74405304    -0.18200
C1482       C  0.05112871  0.24787837  0.75483623     0.10200
S1483       S  0.11991095  0.17091702  0.76363450    -0.33200
S1484       S  0.02604087  0.27937996  0.75254479    -0.33200
H1485       H  0.01558878  0.27596276  0.78233778     0.28200
H1486       H  0.13813923  0.17951949  0.73902652     0.28200
H1487       H  0.05866669  0.17632169  0.78079930     0.18800
H1488       H  0.08740402  0.27376917  0.73502189     0.18800
C1489       C  0.98381198  0.17193102  0.85016268    -0.07000
C1490       C  0.00141109  0.17916237  0.87571666    -0.18200
C1491       C  0.00078436  0.16121769  0.90198667     0.10200
C1492       C  0.98170941  0.13570474  0.90304345    -0.07000
C1493       C  0.96381491  0.12895786  0.87759780    -0.18200
C1494       C  0.96498607  0.14628286  0.85127637     0.10200
S1495       S  0.02586551  0.17118489  0.93259370    -0.33200
S1496       S  0.94328898  0.13313526  0.81932606    -0.33200
H1497       H  0.96534530  0.14079529  0.79768584     0.28200
H1498       H  0.03431439  0.14167190  0.93960665     0.28200
H1499       H  0.01603587  0.19869945  0.87506683     0.18800
H1500       H  0.94940342  0.10923522  0.87783521     0.18800
C1501       C  0.78052938  0.96986618  0.77919161    -0.07000
C1502       C  0.78805376  0.95915836  0.75049937    -0.18200
C1503       C  0.78280423  0.92915091  0.74289971     0.10200
C1504       C  0.76906187  0.90974530  0.76424625    -0.07000
C1505       C  0.76009438  0.92120128  0.79224226    -0.18200
C1506       C  0.76554716  0.95087975  0.79985981     0.10200
S1507       S  0.79648336  0.91661119  0.70690539    -0.33200
S1508       S  0.75364717  0.96296421  0.83674553    -0.33200
H1509       H  0.74916446  0.99311078  0.82872164     0.28200
H1510       H  0.80678728  0.88880062  0.71758451     0.28200
H1511       H  0.79991200  0.97366860  0.73473787     0.18800
H1512       H  0.74905996  0.90671643  0.80862770     0.18800
C1513       C  0.77732187  0.07977384  0.77992993    -0.07000
C1514       C  0.78278862  0.09136511  0.75096079    -0.18200
C1515       C  0.77499023  0.12093107  0.74358004     0.10200
C1516       C  0.76105613  0.13900441  0.76562089    -0.07000
C1517       C  0.75416112  0.12666471  0.79386926    -0.18200
C1518       C  0.76207530  0.09738718  0.80127948     0.10200
S1519       S  0.78470123  0.13430496  0.70629015    -0.33200
S1520       S  0.75240594  0.08385863  0.83852729    -0.33200
H1521       H  0.74866713  0.05377580  0.83024240     0.28200
H1522       H  0.78730736  0.16467439  0.71340367     0.28200
H1523       H  0.79464052  0.07788940  0.73458670     0.18800
H1524       H  0.74221367  0.13989564  0.81020619     0.18800
C1525       C  0.84560236  0.02640116  0.84795009    -0.07000
C1526       C  0.84002481  0.00912876  0.87389949    -0.18200
C1527       C  0.85972333  0.01013709  0.89880024     0.10200
C1528       C  0.88534895  0.02940409  0.89815750    -0.07000
C1529       C  0.89088398  0.04647696  0.87195870    -0.18200
C1530       C  0.87165663  0.04483734  0.84683039     0.10200
S1531       S  0.85169178  0.98514183  0.92982218    -0.33200
S1532       S  0.88239408  0.06575941  0.81353875    -0.33200
H1533       H  0.87157041  0.04453184  0.79277539     0.28200
H1534       H  0.88235369  0.97769004  0.93456930     0.28200
H1535       H  0.82019679  0.99468604  0.87474841     0.18800
H1536       H  0.91064545  0.06097943  0.87084331     0.18800
C1537       C  0.20448132  0.81272059  0.12550350    -0.07000
C1538       C  0.22984279  0.81449820  0.10636080    -0.18200
C1539       C  0.22729074  0.82528040  0.07667034     0.10200
C1540       C  0.19855323  0.83404904  0.06535029    -0.07000
C1541       C  0.17305226  0.83117801  0.08423825    -0.18200
C1542       C  0.17557369  0.82025093  0.11378815     0.10200
S1543       S  0.26189630  0.82927514  0.05545483    -0.33200
S1544       S  0.14083701  0.81514338  0.13471268    -0.33200
H1545       H  0.15043601  0.78888916  0.14958089     0.28200
H1546       H  0.25459440  0.85772540  0.04382930     0.28200
H1547       H  0.25217171  0.80879439  0.11503770     0.18800
H1548       H  0.15069721  0.83704414  0.07573883     0.18800
C1549       C  0.22050677  0.83949618  0.95511163    -0.07000
C1550       C  0.22598423  0.86093371  0.93239175    -0.18200
C1551       C  0.23760030  0.85291961  0.90428173     0.10200
C1552       C  0.24397713  0.82264595  0.89824847    -0.07000
C1553       C  0.24050921  0.80138978  0.92144654    -0.18200
C1554       C  0.22899347  0.80944313  0.94976946     0.10200
S1555       S  0.24195828  0.88213304  0.87624707    -0.33200
S1556       S  0.22211718  0.77975809  0.97653602    -0.33200
H1557       H  0.24271420  0.79152317  0.99775836     0.28200
H1558       H  0.26450449  0.86761904  0.85946546     0.28200
H1559       H  0.22022799  0.88412881  0.93617478     0.18800
H1560       H  0.24462187  0.77800608  0.91677362     0.18800
C1561       C  0.09094017  0.94222993  0.00044028    -0.07000
C1562       C  0.11495354  0.94567535  0.97985721    -0.18200
C1563       C  0.13975644  0.92593893  0.98004677     0.10200
C1564       C  0.14027115  0.90165653  0.00078211    -0.07000
C1565       C  0.11597051  0.89827936  0.02098757    -0.18200
C1566       C  0.09196325  0.91847824  0.02149901     0.10200
S1567       S  0.17051067  0.93398432  0.95452165    -0.33200
S1568       S  0.06459168  0.91377503  0.05117846    -0.33200
H1569       H  0.05980371  0.94442543  0.05585751     0.28200
H1570       H  0.19355353  0.92780480  0.97578279     0.28200
H1571       H  0.11462258  0.96413358  0.96386914     0.18800
H1572       H  0.11595015  0.88003714  0.03724589     0.18800
C1573       C  0.75260818  0.23258817  0.05200307    -0.07000
C1574       C  0.72225604  0.23002573  0.06148545    -0.18200
C1575       C  0.71349119  0.23914748  0.09052121     0.10200
C1576       C  0.73547835  0.25146898  0.11032975    -0.07000
C1577       C  0.76521793  0.25589612  0.09966854    -0.18200
C1578       C  0.77386208  0.24698433  0.07091030     0.10200
S1579       S  0.67473093  0.23252032  0.10154432    -0.33200
S1580       S  0.81244487  0.25488016  0.05961472    -0.33200
H1581       H  0.80565515  0.25902518  0.02878834     0.28200
H1582       H  0.68241225  0.22099925  0.13019429     0.28200
H1583       H  0.70571564  0.21928192  0.04692363     0.18800
H1584       H  0.78216526  0.26625370  0.11407516     0.18800
C1585       C  0.72892942  0.23049865  0.88012582    -0.07000
C1586       C  0.72119891  0.25032582  0.90324824    -0.18200
C1587       C  0.72920848  0.24437904  0.93352762     0.10200
C1588       C  0.74534363  0.21784653  0.94107112    -0.07000
C1589       C  0.75075219  0.19717616  0.91804597    -0.18200
C1590       C  0.74287763  0.20311533  0.88808400     0.10200
S1591       S  0.72091605  0.27297788  0.96054570    -0.33200
S1592       S  0.75250804  0.17503602  0.86092337    -0.33200
H1593       H  0.72795849  0.18143641  0.84148825     0.28200
H1594       H  0.70243874  0.25388347  0.97802597     0.28200
H1595       H  0.71068561  0.27150000  0.89748718     0.18800
H1596       H  0.76215325  0.17630348  0.92318610     0.18800
C1597       C  0.82513907  0.16746957  0.00088673    -0.07000
C1598       C  0.82477804  0.14279386  0.02063312    -0.18200
C1599       C  0.84944210  0.12309929  0.02257011     0.10200
C1600       C  0.87514100  0.12763287  0.00394674    -0.07000
C1601       C  0.87577601  0.15273662  0.98464290    -0.18200
C1602       C  0.85127784  0.17276444  0.98314247     0.10200
S1603       S  0.84718083  0.09327816  0.05014499    -0.33200
S1604       S  0.85515485  0.20520382  0.95900291    -0.33200
H1605       H  0.83909033  0.22467341  0.97788682     0.28200
H1606       H  0.87814247  0.09424700  0.05822273     0.28200
H1607       H  0.80509988  0.13885027  0.03476120     0.18800
H1608       H  0.89544463  0.15671547  0.97051506     0.18800
C1609       C  0.75756776  0.80751603  0.11946153    -0.07000
C1610       C  0.76432180  0.78212604  0.10225716    -0.18200
C1611       C  0.77735601  0.78474141  0.07348185     0.10200
C1612       C  0.78337172  0.81345226  0.06121146    -0.07000
C1613       C  0.77535264  0.83873392  0.07808777    -0.18200
C1614       C  0.76227867  0.83612092  0.10665700     0.10200
S1615       S  0.78761848  0.75067870  0.05476330    -0.33200
S1616       S  0.75132921  0.87018465  0.12518109    -0.33200
H1617       H  0.72567377  0.85786772  0.13957281     0.28200
H1618       H  0.81620644  0.76127683  0.04533852     0.28200
H1619       H  0.76085682  0.76003912  0.11191454     0.18800
H1620       H  0.77908065  0.86093935  0.06882453     0.18800
C1621       C  0.80178841  0.79063931  0.95257338    -0.07000
C1622       C  0.77194647  0.78076306  0.94682632    -0.18200
C1623       C  0.76316211  0.77052130  0.91812939     0.10200
C1624       C  0.78452531  0.76993489  0.89441843    -0.07000
C1625       C  0.81474034  0.77796471  0.90072911    -0.18200
C1626       C  0.82369328  0.78776123  0.92939136     0.10200
S1627       S  0.72359352  0.76242911  0.91192484    -0.33200
S1628       S  0.86337335  0.79686229  0.93447306    -0.33200
H1629       H  0.86449116  0.78792246  0.96498868     0.28200
H1630       H  0.72950888  0.73406695  0.89995036     0.28200
H1631       H  0.75480208  0.78292563  0.96413814     0.18800
H1632       H  0.83137842  0.77761704  0.88276261     0.18800
C1633       C  0.88966915  0.92774705  0.00133115    -0.07000
C1634       C  0.87602982  0.91787020  0.97460639    -0.18200
C1635       C  0.85665909  0.89288273  0.97434988     0.10200
C1636       C  0.85177949  0.87654106  0.00149709    -0.07000
C1637       C  0.86592618  0.88646975  0.02820352    -0.18200
C1638       C  0.88451705  0.91187468  0.02846216     0.10200
S1639       S  0.83764811  0.88335771  0.93939512    -0.33200
S1640       S  0.90160383  0.92232633  0.06401738    -0.33200
H1641       H  0.90295813  0.95313701  0.05806739     0.28200
H1642       H  0.84773390  0.90802602  0.92223077     0.28200
H1643       H  0.88096334  0.92954337  0.95376803     0.18800
H1644       H  0.86257454  0.87430970  0.04919121     0.18800
loop_ 
_geom_bond_atom_site_label_1 
_geom_bond_atom_site_label_2 
_geom_bond_distance 
_geom_bond_site_symmetry_2 
_ccdc_geom_bond_type 
C1            N2   1.357       .  A
C1            N6   1.366       .  A
C1         C1612   1.487       .  S
N2            C3   1.353       .  A
C3            N4   1.354   1_554  A
C3         C1636   1.488       .  S
N4            C5   1.359       .  A
C5            N6   1.366   1_556  A
C5         C1621   1.492       .  S
C7            N8   1.360       .  A
C7           N12   1.361   1_554  A
C7         C1573   1.478       .  S
N8            C9   1.355   1_554  A
C9           N10   1.357       .  A
C9         C1597   1.483   1_556  S
N10          C11   1.364       .  A
C11          N12   1.362       .  A
C11        C1588   1.496       .  S
C13          N14   1.354       .  A
C13          N18   1.362       .  A
C13        C1540   1.485       .  S
N14          C15   1.354       .  A
C15          N16   1.358   1_554  A
C15        C1564   1.487       .  S
N16          C17   1.365       .  A
C17          N18   1.363   1_556  A
C17        C1549   1.491       .  S
C19          N20   1.360       .  A
C19          N24   1.356       .  A
C19        C1513   1.467       .  S
N20          C21   1.361   1_545  A
C21          N22   1.359       .  A
C21        C1501   1.468       .  S
N22          C23   1.354   1_565  A
C23          N24   1.353       .  A
C23        C1525   1.472       .  S
C25          N26   1.358       .  A
C25          N30   1.364       .  A
C25        C1465   1.484       .  S
N26          C27   1.354       .  A
C27          N28   1.358   1_655  A
C27        C1489   1.484       .  S
N28          C29   1.365       .  A
C29          N30   1.365   1_455  A
C29        C1477   1.492       .  S
C31          N32   1.353       .  A
C31          N36   1.356       .  A
C31        C1429   1.462       .  S
N32          C33   1.349       .  A
C33          N34   1.354   1_655  A
C33        C1453   1.467       .  S
N34          C35   1.359       .  A
C35          N36   1.358   1_455  A
C35        C1441   1.472       .  S
C37          N38   1.356       .  A
C37          N42   1.353       .  A
C37        C1405   1.455       .  S
N38          C39   1.352       .  A
C39          N40   1.355       .  A
C39        C1417   1.469       .  S
N40          C41   1.358       .  A
C41          N42   1.355       .  A
C41        C1396   1.465   1_545  S
C43          N44   1.358       .  A
C43          N48   1.359       .  A
C43        C1372   1.482       .  S
N44          C45   1.355       .  A
C45          N46   1.360   1_655  A
C45        C1384   1.482       .  S
N46          C47   1.364       .  A
C47          N48   1.361   1_455  A
C47        C1357   1.476       .  S
C49          N50   1.357       .  A
C49          N54   1.365       .  A
C49        C1333   1.484       .  S
N50          C51   1.354       .  A
C51          N52   1.359       .  A
C51        C1345   1.482       .  S
N52          C53   1.363       .  A
C53          N54   1.365       .  A
C53        C1324   1.488   1_545  S
C55          N56   1.363       .  A
C55          N60   1.361       .  A
C55        C1297   1.494       .  S
N56          C57   1.358       .  A
C57          N58   1.359   1_655  A
C57        C1285   1.488       .  S
N58          C59   1.360       .  A
C59          N60   1.360   1_455  A
C59        C1309   1.479       .  S
Zr61         O62   2.440       .  S
Zr61         O63   2.421       .  S
Zr61         O64   2.437       .  S
Zr61         O67   2.436       .  S
Zr61         O69   2.378       .  S
Zr61         O70   2.383       .  S
Zr61         O71   2.399       .  S
Zr61         O72   2.398       .  S
O62         H118   0.990       .  S
O62         H126   0.990       .  S
O63          C83   1.282       .  A
O64          C85   1.286       .  A
O65         Zr75   2.447       .  S
O65          C84   1.287       .  A
O66         Zr74   2.447       .  S
O66          C85   1.286       .  A
O67          C84   1.285       .  A
O68         Zr76   2.426       .  S
O68          C83   1.282       .  A
O69         Zr74   2.401       .  S
O69         Zr76   2.379       .  S
O70         Zr75   2.399       .  S
O70         Zr76   2.373       .  S
O70         H105   0.966       .  S
O71         Zr74   2.402       .  S
O71         Zr91   2.396       .  S
O71         H108   0.966       .  S
O72         Zr75   2.399       .  S
O72         Zr91   2.384       .  S
Zr73         O98   2.445       .  S
Zr73         O92   2.444       .  S
Zr73        O100   2.415       .  S
Zr73         O88   2.418       .  S
Zr73         O79   2.403       .  S
Zr73         O80   2.413       .  S
Zr73         O81   2.373       .  S
Zr73         O82   2.376       .  S
Zr74         O93   2.434       .  S
Zr74         O86   2.435       .  S
Zr74         O87   2.459       .  S
Zr74         O80   2.403       .  S
Zr74         O81   2.399       .  S
Zr75         O77   2.435       .  S
Zr75         O99   2.438       .  S
Zr75        O101   2.459       .  S
Zr75         O79   2.392       .  S
Zr75         O82   2.398       .  S
Zr76        O102   2.437       .  S
Zr76        O103   2.435       .  S
Zr76         O78   2.437       .  S
Zr76         O79   2.398       .  S
Zr76         O80   2.390       .  S
O77         H114   0.990       .  S
O78         H109   0.990       .  S
O78         H123   0.990       .  S
O80         H106   0.964       .  S
O81         Zr91   2.392       .  S
O82         Zr91   2.384       .  S
O82         H107   0.966       .  S
C83        C1249   1.476       .  S
C84        C1225   1.477       .  S
C85        C1237   1.487       .  S
O86         H122   0.990       .  S
O87          C89   1.288       .  A
O88          C89   1.279       .  A
C89        C1261   1.474       .  S
O90         Zr91   2.439       .  S
O90         H119   0.990       .  S
Zr91         O94   2.436       .  S
Zr91         O95   2.440       .  S
Zr91         O96   2.417       .  S
O92          C97   1.284       .  A
O93         H110   0.990       .  S
O93         H125   0.990       .  S
O94         H111   0.990       .  S
O95         H115   0.990       .  S
O95         H124   0.990       .  S
O96          C97   1.280       .  A
C97        C1273   1.482       .  S
O98         H117   0.990       .  S
O98         H121   0.991       .  S
O99         H113   0.990       .  S
O99         H120   0.990       .  S
O100        C104   1.281       .  A
O101        C104   1.288       .  A
O102        H112   0.990       .  S
O103        H116   0.990       .  S
C104       C1312   1.487       .  S
C127        N128   1.364       .  A
C127        N132   1.357       .  A
C127       C1276   1.479       .  S
N128        C129   1.365       .  A
C129        N130   1.360       .  A
C129       C1213   1.490   1_545  S
N130        C131   1.355       .  A
C131        N132   1.354       .  A
C131       C1201   1.480       .  S
Zr133       O134   2.441       .  S
Zr133       O135   2.432       .  S
Zr133       O136   2.424       .  S
Zr133       O139   2.409       .  S
Zr133       O141   2.375       .  S
Zr133       O142   2.378       .  S
Zr133       O143   2.404       .  S
Zr133       O144   2.398       .  S
O134        H190   0.990       .  S
O134        H198   0.990       .  S
O135        C155   1.284       .  A
O136        C157   1.282       .  A
O137       Zr147   2.432       .  S
O137        C156   1.284       .  A
O138       Zr146   2.459       .  S
O138        C157   1.288       .  A
O139        C156   1.281       .  A
O140       Zr148   2.419       .  S
O140        C155   1.279       .  A
O141       Zr146   2.402       .  S
O141       Zr148   2.385       .  S
O142       Zr147   2.394       .  S
O142       Zr148   2.373       .  S
O142        H177   0.966       .  S
O143       Zr146   2.404       .  S
O143       Zr163   2.396       .  S
O143        H180   0.966       .  S
O144       Zr147   2.394       .  S
O144       Zr163   2.390       .  S
Zr145       O170   2.445       .  S
Zr145       O164   2.431       .  S
Zr145       O172   2.413       .  S
Zr145       O160   2.405       .  S
Zr145       O151   2.394       .  S
Zr145       O152   2.398       .  S
Zr145       O153   2.376       .  S
Zr145       O154   2.375       .  S
Zr146       O165   2.436       .  S
Zr146       O158   2.434       .  S
Zr146       O159   2.463       .  S
Zr146       O152   2.399       .  S
Zr146       O153   2.393       .  S
Zr147       O149   2.435       .  S
Zr147       O171   2.436       .  S
Zr147       O173   2.447       .  S
Zr147       O151   2.392       .  S
Zr147       O154   2.384       .  S
Zr148       O174   2.436       .  S
Zr148       O175   2.436       .  S
Zr148       O150   2.437       .  S
Zr148       O151   2.392       .  S
Zr148       O152   2.396       .  S
O149        H186   0.990       .  S
O150        H181   0.990       .  S
O150        H195   0.990       .  S
O152        H178   0.965       .  S
O153       Zr163   2.377       .  S
O154       Zr163   2.374       .  S
O154        H179   0.966       .  S
C155       C1165   1.469       .  S
C156       C1177   1.464       .  S
C157       C1192   1.483       .  S
O158        H194   0.990       .  S
O159        C161   1.290       .  A
O160        C161   1.281       .  A
C161       C1216   1.483       .  S
O162       Zr163   2.439       .  S
O162        H191   0.991       .  S
Zr163       O166   2.436       .  S
Zr163       O167   2.440       .  S
Zr163       O168   2.422       .  S
O164        C169   1.285       .  A
O165        H182   0.990       .  S
O165        H197   0.990       .  S
O166        H183   0.990       .  S
O167        H187   0.990       .  S
O167        H196   0.990       .  S
O168        C169   1.282       .  A
C169       C1537   1.481       .  S
O170        H189   0.990       .  S
O170        H193   0.990       .  S
O171        H185   0.990       .  S
O171        H192   0.990       .  S
O172        C176   1.281       .  A
O173        C176   1.287       .  A
O174        H184   0.990       .  S
O175        H188   0.989       .  S
C176       C1360   1.469       .  S
Zr199       O200   2.441       .  S
Zr199       O201   2.431       .  S
Zr199       O202   2.412       .  S
Zr199       O205   2.400       .  S
Zr199       O207   2.371       .  S
Zr199       O208   2.378       .  S
Zr199       O209   2.403       .  S
Zr199       O210   2.399       .  S
O200        H256   0.991       .  S
O200        H264   0.990       .  S
O201        C221   1.284       .  A
O202        C223   1.279       .  A
O203       Zr213   2.464       .  S
O203        C222   1.289       .  A
O204       Zr212   2.457       .  S
O204        C223   1.288       .  A
O205        C222   1.280       .  A
O206       Zr214   2.430       .  S
O206        C221   1.282       .  A
O207       Zr212   2.397       .  S
O207       Zr214   2.375       .  S
O208       Zr213   2.398       .  S
O208       Zr214   2.381       .  S
O208        H243   0.966       .  S
O209       Zr212   2.397       .  S
O209       Zr229   2.402       .  S
O209        H246   0.966       .  S
O210       Zr213   2.392       .  S
O210       Zr229   2.399       .  S
Zr211       O236   2.441       .  S
Zr211       O230   2.436       .  S
Zr211       O238   2.420       .  S
Zr211       O226   2.426       .  S
Zr211       O217   2.400       .  S
Zr211       O218   2.407       .  S
Zr211       O219   2.380       .  S
Zr211       O220   2.381       .  S
Zr212       O231   2.435       .  S
Zr212       O224   2.434       .  S
Zr212       O225   2.446       .  S
Zr212       O218   2.406       .  S
Zr212       O219   2.399       .  S
Zr213       O215   2.435       .  S
Zr213       O237   2.436       .  S
Zr213       O239   2.455       .  S
Zr213       O217   2.395       .  S
Zr213       O220   2.399       .  S
Zr214       O240   2.435       .  S
Zr214       O241   2.436       .  S
Zr214       O216   2.435       .  S
Zr214       O217   2.394       .  S
Zr214       O218   2.391       .  S
O215        H252   0.990       .  S
O216        H247   0.990       .  S
O216        H261   0.990       .  S
O218        H244   0.965       .  S
O219       Zr229   2.378       .  S
O220       Zr229   2.384       .  S
O220        H245   0.966       .  S
C221       C1336   1.486       .  S
C222       C1576   1.486       .  S
C223       C1300   1.480       .  S
O224        H260   0.989       .  S
O225        C227   1.287       .  A
O226        C227   1.282       .  A
C227       C1129   1.474       .  S
O228       Zr229   2.436       .  S
O228        H257   0.990       .  S
Zr229       O232   2.436       .  S
Zr229       O233   2.439       .  S
Zr229       O234   2.433       .  S
O230        C235   1.285       .  A
O231        H248   0.990       .  S
O231        H263   0.990       .  S
O232        H249   0.990       .  S
O233        H253   0.990       .  S
O233        H262   0.990       .  S
O234        C235   1.283       .  A
C235       C1141   1.488       .  S
O236        H255   0.990       .  S
O236        H259   0.990       .  S
O237        H251   0.990       .  S
O237        H258   0.989       .  S
O238        C242   1.282       .  A
O239        C242   1.288       .  A
O240        H250   0.990       .  S
O241        H254   0.990       .  S
C242       C1153   1.477       .  S
Zr265       O266   2.440       .  S
Zr265       O267   2.425       .  S
Zr265       O268   2.444       .  S
Zr265       O271   2.424       .  S
Zr265       O273   2.378       .  S
Zr265       O274   2.384       .  S
Zr265       O275   2.401       .  S
Zr265       O276   2.401       .  S
O266        H322   0.991       .  S
O266        H330   0.990       .  S
O267        C287   1.283       .  A
O268        C289   1.286       .  A
O269       Zr279   2.453       .  S
O269        C288   1.288       .  A
O270       Zr278   2.456       .  S
O270        C289   1.288       .  A
O271        C288   1.284       .  A
O272       Zr280   2.428       .  S
O272        C287   1.282       .  A
O273       Zr278   2.404       .  S
O273       Zr280   2.382       .  S
O274       Zr279   2.399       .  S
O274       Zr280   2.375       .  S
O274        H309   0.966       .  S
O275       Zr278   2.405       .  S
O275       Zr295   2.389       .  S
O275        H312   0.965       .  S
O276       Zr279   2.398       .  S
O276       Zr295   2.394       .  S
Zr277       O302   2.441       .  S
Zr277       O296   2.429       .  S
Zr277       O304   2.414       .  S
Zr277       O292   2.416       .  S
Zr277       O283   2.400       .  S
Zr277       O284   2.404       .  S
Zr277       O285   2.373       .  S
Zr277       O286   2.380       .  S
Zr278       O297   2.435       .  S
Zr278       O290   2.435       .  S
Zr278       O291   2.460       .  S
Zr278       O284   2.405       .  S
Zr278       O285   2.394       .  S
Zr279       O281   2.438       .  S
Zr279       O303   2.435       .  S
Zr279       O305   2.472       .  S
Zr279       O283   2.394       .  S
Zr279       O286   2.397       .  S
Zr280       O306   2.435       .  S
Zr280       O307   2.436       .  S
Zr280       O282   2.437       .  S
Zr280       O283   2.399       .  S
Zr280       O284   2.393       .  S
O281        H318   0.990       .  S
O282        H313   0.990       .  S
O282        H327   0.990       .  S
O284        H310   0.965       .  S
O285       Zr295   2.377       .  S
O286       Zr295   2.383       .  S
O286        H311   0.966       .  S
C287       C1093   1.479       .  S
C288       C1105   1.482       .  S
C289       C1117   1.485       .  S
O290        H326   0.990       .  S
O291        C293   1.289       .  A
O292        C293   1.282       .  A
C293       C1369   1.494       .  S
O294       Zr295   2.435       .  S
O294        H323   0.990       .  S
Zr295       O298   2.436       .  S
Zr295       O299   2.437       .  S
Zr295       O300   2.422       .  S
O296        C301   1.283       .  A
O297        H314   0.990       .  S
O297        H329   0.990       .  S
O298        H315   0.990       .  S
O299        H319   0.990       .  S
O299        H328   0.990       .  S
O300        C301   1.281       .  A
C301       C1609   1.479       .  S
O302        H321   0.990       .  S
O302        H325   0.991       .  S
O303        H317   0.989       .  S
O303        H324   0.990       .  S
O304        C308   1.281       .  A
O305        C308   1.291       .  A
O306        H316   0.990       .  S
O307        H320   0.990       .  S
C308       C1321   1.486       .  S
C331        N332   1.360       .  A
C331        N336   1.363       .  A
C331       C1264   1.473       .  S
N332        C333   1.359   1_554  A
C333        N334   1.358       .  A
C333       C1081   1.478       .  S
N334        C335   1.355   1_556  A
C335        N336   1.360       .  A
C335       C1069   1.487       .  S
Zr337       O338   2.443       .  S
Zr337       O339   2.415       .  S
Zr337       O340   2.426       .  S
Zr337       O343   2.415       .  S
Zr337       O345   2.375       .  S
Zr337       O346   2.382       .  S
Zr337       O347   2.401       .  S
Zr337       O348   2.387       .  S
O338        H394   0.990       .  S
O338        H402   0.991       .  S
O339        C359   1.279       .  A
O340        C361   1.281       .  A
O341       Zr351   2.450       .  S
O341        C360   1.287       .  A
O342       Zr350   2.466       .  S
O342        C361   1.289       .  A
O343        C360   1.283       .  A
O344       Zr352   2.407       .  S
O344        C359   1.277       .  A
O345       Zr350   2.407       .  S
O345       Zr352   2.391       .  S
O346       Zr351   2.403       .  S
O346       Zr352   2.378       .  S
O346        H381   0.966       .  S
O347       Zr350   2.407       .  S
O347       Zr367   2.393       .  S
O347        H384   0.965       .  S
O348       Zr351   2.395       .  S
O348       Zr367   2.378       .  S
Zr349       O374   2.444       .  S
Zr349       O368   2.419       .  S
Zr349       O376   2.411       .  S
Zr349       O364   2.404       .  S
Zr349       O355   2.396       .  S
Zr349       O356   2.399       .  S
Zr349       O357   2.374       .  S
Zr349       O358   2.375       .  S
Zr350       O369   2.435       .  S
Zr350       O362   2.433       .  S
Zr350       O363   2.468       .  S
Zr350       O356   2.405       .  S
Zr350       O357   2.399       .  S
Zr351       O353   2.435       .  S
Zr351       O375   2.438       .  S
Zr351       O377   2.457       .  S
Zr351       O355   2.396       .  S
Zr351       O358   2.402       .  S
Zr352       O378   2.435       .  S
Zr352       O379   2.436       .  S
Zr352       O354   2.437       .  S
Zr352       O355   2.393       .  S
Zr352       O356   2.386       .  S
O353        H390   0.990       .  S
O354        H385   0.990       .  S
O354        H399   0.990       .  S
O356        H382   0.964       .  S
O357       Zr367   2.385       .  S
O358       Zr367   2.384       .  S
O358        H383   0.966       .  S
C359       C1408   1.459       .  S
C360       C1084   1.485       .  S
C361       C1480   1.487       .  S
O362        H398   0.989       .  S
O363        C365   1.291       .  A
O364        C365   1.280       .  A
C365       C1033   1.482       .  S
O366       Zr367   2.439       .  S
O366        H395   0.991       .  S
Zr367       O370   2.436       .  S
Zr367       O371   2.439       .  S
Zr367       O372   2.411       .  S
O368        C373   1.281       .  A
O369        H386   0.990       .  S
O369        H401   0.990       .  S
O370        H387   0.990       .  S
O371        H391   0.989       .  S
O371        H400   0.990       .  S
O372        C373   1.278       .  A
C373       C1045   1.464       .  S
O374        H393   0.991       .  S
O374        H397   0.991       .  S
O375        H389   0.990       .  S
O375        H396   0.990       .  S
O376        C380   1.278       .  A
O377        C380   1.287       .  A
O378        H388   0.990       .  S
O379        H392   0.990       .  S
C380       C1057   1.479       .  S
Zr403       O404   2.441       .  S
Zr403       O405   2.411       .  S
Zr403       O406   2.402       .  S
Zr403       O409   2.399       .  S
Zr403       O411   2.374       .  S
Zr403       O412   2.374       .  S
Zr403       O413   2.397       .  S
Zr403       O414   2.392       .  S
O404        H460   0.991       .  S
O404        H468   0.990       .  S
O405        C425   1.280       .  A
O406        C427   1.278       .  A
O407       Zr417   2.441       .  S
O407        C426   1.286       .  A
O408       Zr416   2.464       .  S
O408        C427   1.289       .  A
O409        C426   1.279       .  A
O410       Zr418   2.415       .  S
O410        C425   1.280       .  A
O411       Zr416   2.396       .  S
O411       Zr418   2.381       .  S
O412       Zr417   2.387       .  S
O412       Zr418   2.374       .  S
O412        H447   0.966       .  S
O413       Zr416   2.400       .  S
O413       Zr433   2.398       .  S
O413        H450   0.966       .  S
O414       Zr417   2.393       .  S
O414       Zr433   2.395       .  S
Zr415       O440   2.441       .  S
Zr415       O434   2.411       .  S
Zr415       O442   2.410       .  S
Zr415       O430   2.411       .  S
Zr415       O421   2.391       .  S
Zr415       O422   2.393       .  S
Zr415       O423   2.375       .  S
Zr415       O424   2.377       .  S
Zr416       O435   2.435       .  S
Zr416       O428   2.433       .  S
Zr416       O429   2.460       .  S
Zr416       O422   2.401       .  S
Zr416       O423   2.391       .  S
Zr417       O419   2.436       .  S
Zr417       O441   2.436       .  S
Zr417       O443   2.445       .  S
Zr417       O421   2.395       .  S
Zr417       O424   2.387       .  S
Zr418       O444   2.436       .  S
Zr418       O445   2.436       .  S
Zr418       O420   2.435       .  S
Zr418       O421   2.394       .  S
Zr418       O422   2.389       .  S
O419        H456   0.990       .  S
O420        H451   0.990       .  S
O420        H465   0.990       .  S
O422        H448   0.965       .  S
O423       Zr433   2.378       .  S
O424       Zr433   2.372       .  S
O424        H449   0.966       .  S
C425       C1393   1.467       .  S
C426       C1444   1.463       .  S
C427       C1552   1.476       .  S
O428        H464   0.990       .  S
O429        C431   1.289       .  A
O430        C431   1.281       .  A
C431       C1009   1.474       .  S
O432       Zr433   2.439       .  S
O432        H461   0.990       .  S
Zr433       O436   2.436       .  S
Zr433       O437   2.439       .  S
Zr433       O438   2.432       .  S
O434        C439   1.282       .  A
O435        H452   0.990       .  S
O435        H467   0.990       .  S
O436        H453   0.990       .  S
O437        H457   0.990       .  S
O437        H466   0.990       .  S
O438        C439   1.284       .  A
C439       C1021   1.480       .  S
O440        H459   0.990       .  S
O440        H463   0.990       .  S
O441        H455   0.990       .  S
O441        H462   0.990       .  S
O442        C446   1.282       .  A
O443        C446   1.287       .  A
O444        H454   0.990       .  S
O445        H458   0.989       .  S
C446        C997   1.474       .  S
Zr469       O470   2.442       .  S
Zr469       O471   2.435       .  S
Zr469       O472   2.419       .  S
Zr469       O475   2.410       .  S
Zr469       O477   2.376       .  S
Zr469       O478   2.374       .  S
Zr469       O479   2.405       .  S
Zr469       O480   2.400       .  S
O470        H526   0.991       .  S
O470        H534   0.990       .  S
O471        C491   1.284       .  A
O472        C493   1.281       .  A
O473       Zr483   2.446       .  S
O473        C492   1.287       .  A
O474       Zr482   2.458       .  S
O474        C493   1.288       .  A
O475        C492   1.281       .  A
O476       Zr484   2.420       .  S
O476        C491   1.279       .  A
O477       Zr482   2.402       .  S
O477       Zr484   2.383       .  S
O478       Zr483   2.392       .  S
O478       Zr484   2.373       .  S
O478        H513   0.964       .  S
O479       Zr482   2.406       .  S
O479       Zr499   2.399       .  S
O479        H516   0.966       .  S
O480       Zr483   2.401       .  S
O480       Zr499   2.398       .  S
Zr481       O506   2.445       .  S
Zr481       O500   2.423       .  S
Zr481       O508   2.420       .  S
Zr481       O496   2.406       .  S
Zr481       O487   2.392       .  S
Zr481       O488   2.399       .  S
Zr481       O489   2.375       .  S
Zr481       O490   2.374       .  S
Zr482       O501   2.437       .  S
Zr482       O494   2.434       .  S
Zr482       O495   2.457       .  S
Zr482       O488   2.401       .  S
Zr482       O489   2.394       .  S
Zr483       O485   2.435       .  S
Zr483       O507   2.435       .  S
Zr483       O509   2.457       .  S
Zr483       O487   2.394       .  S
Zr483       O490   2.392       .  S
Zr484       O510   2.435       .  S
Zr484       O511   2.434       .  S
Zr484       O486   2.438       .  S
Zr484       O487   2.397       .  S
Zr484       O488   2.394       .  S
O485        H522   0.990       .  S
O486        H517   0.990       .  S
O486        H531   0.990       .  S
O488        H514   0.965       .  S
O489       Zr499   2.373       .  S
O490       Zr499   2.378       .  S
O490        H515   0.966       .  S
C491       C1516   1.471       .  S
C492       C1468   1.475       .  S
C493       C1585   1.485       .  S
O494        H530   0.990       .  S
O495        C497   1.289       .  A
O496        C497   1.281       .  A
C497        C973   1.480       .  S
O498       Zr499   2.439       .  S
O498        H527   0.991       .  S
Zr499       O502   2.438       .  S
Zr499       O503   2.439       .  S
Zr499       O504   2.425       .  S
O500        C505   1.283       .  A
O501        H518   0.990       .  S
O501        H533   0.990       .  S
O502        H519   0.990       .  S
O503        H523   0.990       .  S
O503        H532   0.990       .  S
O504        C505   1.282       .  A
C505        C985   1.480       .  S
O506        H525   0.990       .  S
O506        H529   0.990       .  S
O507        H521   0.990       .  S
O507        H528   0.990       .  S
O508        C512   1.282       .  A
O509        C512   1.288       .  A
O510        H520   0.990       .  S
O511        H524   0.990       .  S
C512        C961   1.480       .  S
Zr535       O536   2.443       .  S
Zr535       O537   2.425       .  S
Zr535       O538   2.419       .  S
Zr535       O541   2.405       .  S
Zr535       O543   2.374       .  S
Zr535       O544   2.380       .  S
Zr535       O545   2.403       .  S
Zr535       O546   2.397       .  S
O536        H592   0.991       .  S
O536        H600   0.990       .  S
O537        C557   1.283       .  A
O538        C559   1.280       .  A
O539       Zr549   2.446       .  S
O539        C558   1.286       .  A
O540       Zr548   2.467       .  S
O540        C559   1.289       .  A
O541        C558   1.281       .  A
O542       Zr550   2.405       .  S
O542        C557   1.278       .  A
O543       Zr548   2.393       .  S
O543       Zr550   2.380       .  S
O544       Zr549   2.385       .  S
O544       Zr550   2.382       .  S
O544        H579   0.964       .  S
O545       Zr548   2.405       .  S
O545       Zr565   2.398       .  S
O545        H582   0.966       .  S
O546       Zr549   2.396       .  S
O546       Zr565   2.395       .  S
Zr547       O572   2.439       .  S
Zr547       O566   2.416       .  S
Zr547       O574   2.415       .  S
Zr547       O562   2.403       .  S
Zr547       O553   2.391       .  S
Zr547       O554   2.401       .  S
Zr547       O555   2.379       .  S
Zr547       O556   2.374       .  S
Zr548       O567   2.435       .  S
Zr548       O560   2.434       .  S
Zr548       O561   2.459       .  S
Zr548       O554   2.403       .  S
Zr548       O555   2.401       .  S
Zr549       O551   2.435       .  S
Zr549       O573   2.437       .  S
Zr549       O575   2.445       .  S
Zr549       O553   2.392       .  S
Zr549       O556   2.393       .  S
Zr550       O576   2.435       .  S
Zr550       O577   2.436       .  S
Zr550       O552   2.437       .  S
Zr550       O553   2.395       .  S
Zr550       O554   2.383       .  S
O551        H588   0.990       .  S
O552        H583   0.990       .  S
O552        H597   0.990       .  S
O554        H580   0.966       .  S
O555       Zr565   2.373       .  S
O556       Zr565   2.378       .  S
O556        H581   0.966       .  S
C557       C1432   1.462       .  S
C558       C1504   1.477       .  S
C559       C1624   1.486       .  S
O560        H596   0.990       .  S
O561        C563   1.289       .  A
O562        C563   1.280       .  A
C563        C937   1.474       .  S
O564       Zr565   2.440       .  S
O564        H593   0.990       .  S
Zr565       O568   2.436       .  S
Zr565       O569   2.440       .  S
Zr565       O570   2.429       .  S
O566        C571   1.282       .  A
O567        H584   0.990       .  S
O567        H599   0.990       .  S
O568        H585   0.990       .  S
O569        H589   0.990       .  S
O569        H598   0.990       .  S
O570        C571   1.283       .  A
C571        C949   1.479       .  S
O572        H591   0.990       .  S
O572        H595   0.990       .  S
O573        H587   0.990       .  S
O573        H594   0.989       .  S
O574        C578   1.282       .  A
O575        C578   1.286       .  A
O576        H586   0.990       .  S
O577        H590   0.990       .  S
C578        C925   1.472       .  S
C601        N602   1.354       .  A
C601        N606   1.361       .  A
C601        C952   1.483       .  S
N602        C603   1.353       .  A
C603        N604   1.357       .  A
C603        C913   1.474       .  S
N604        C605   1.363       .  A
C605        N606   1.361       .  A
C605       C1012   1.484       .  S
C607        N608   1.356       .  A
C607        N612   1.359       .  A
C607       C1048   1.469       .  S
N608        C609   1.351       .  A
C609        N610   1.352       .  A
C609        C901   1.467       .  S
N610        C611   1.356       .  A
C611        N612   1.361       .  A
C611       C1024   1.475       .  S
C613        N614   1.361       .  A
C613        N618   1.359       .  A
C613        C976   1.482       .  S
N614        C615   1.359       .  A
C615        N616   1.361       .  A
C615       C1060   1.480       .  S
N616        C617   1.358       .  A
C617        N618   1.359       .  A
C617        C889   1.505       .  S
C619        N620   1.354       .  A
C619        N624   1.361       .  A
C619        C988   1.479       .  S
N620        C621   1.349       .  A
C621        N622   1.355       .  A
C621        C877   1.468       .  S
N622        C623   1.362       .  A
C623        N624   1.364       .  A
C623        C940   1.485       .  S
C625        N626   1.362       .  A
C625        N630   1.362       .  A
C625       C1156   1.481       .  S
N626        C627   1.362       .  A
C627        N628   1.359       .  A
C627       C1240   1.489       .  S
N628        C629   1.358       .  A
C629        N630   1.361       .  A
C629        C865   1.490       .  S
C631        N632   1.368       .  A
C631        N636   1.356       .  A
C631       C1144   1.488       .  S
N632        C633   1.368       .  A
C633        N634   1.361       .  A
C633       C1120   1.491       .  S
N634        C635   1.356       .  A
C635        N636   1.351       .  A
C635        C853   1.475       .  S
C637        N638   1.358       .  A
C637        N642   1.363       .  A
C637       C1108   1.482       .  S
N638        C639   1.356       .  A
C639        N640   1.356       .  A
C639        C844   1.491       .  S
N640        C641   1.361       .  A
C641        N642   1.363       .  A
C641       C1189   1.488       .  S
C643        N644   1.357       .  A
C643        N648   1.358       .  A
C643       C1252   1.467       .  S
N644        C645   1.354       .  A
C645        N646   1.353       .  A
C645        C829   1.473       .  S
N646        C647   1.356       .  A
C647        N648   1.358       .  A
C647       C1180   1.467       .  S
C649        N650   1.358       .  A
C649        N654   1.355       .  A
C649       C1096   1.478       .  S
N650        C651   1.360       .  A
C651        N652   1.363       .  A
C651        C928   1.485       .  S
N652        C653   1.359       .  A
C653        N654   1.356       .  A
C653        C817   1.488       .  S
C655        N656   1.359       .  A
C655        N660   1.359       .  A
C655       C1132   1.472       .  S
N656        C657   1.360       .  A
C657        N658   1.363       .  A
C657        C964   1.481       .  S
N658        C659   1.361       .  A
C659        N660   1.358       .  A
C659        C805   1.496       .  S
C661        N662   1.353       .  A
C661        N666   1.359       .  A
C661       C1168   1.467       .  S
N662        C663   1.351       .  A
C663        N664   1.357       .  A
C663        C793   1.474       .  S
N664        C665   1.363       .  A
C665        N666   1.361       .  A
C665       C1000   1.492       .  S
C667        N668   1.359       .  A
C667        N672   1.361       .  A
C667       C1228   1.478       .  S
N668        C669   1.360       .  A
C669        N670   1.363       .  A
C669       C1036   1.480       .  S
N670        C671   1.361       .  A
C671        N672   1.360       .  A
C671        C781   1.490       .  S
O673       Zr709   2.459   1_566  S
O673        C684   1.296       .  A
O674       Zr708   2.436   1_565  S
O674        C685   1.291       .  A
O675       Zr681   2.429   1_556  S
O675        C686   1.290       .  A
O676       Zr681   2.420       .  S
O676        C687   1.289       .  A
O677       Zr711   2.476   1_565  S
O677        C687   1.298       .  A
O678       Zr710   2.426   1_565  S
O678        C686   1.290       .  A
O679       Zr681   2.451   1_456  S
O679        C685   1.295   1_556  A
O680       Zr681   2.425   1_556  S
O680        C684   1.289       .  A
Zr681       O682   2.335   1_665  S
Zr681       O683   2.343   1_564  S
Zr681       O691   2.342   1_565  S
Zr681       O689   2.330   1_664  S
O682       Zr708   2.340       .  S
O682       Zr711   2.342   1_455  S
O683       Zr709   2.340   1_556  S
O683       Zr710   2.332       .  S
C684       C1633   1.469   1_556  S
C685       C1561   1.479       .  S
C686       C1456   1.468       .  S
C687       C1381   1.500       .  S
H688        O689   0.966   1_565  S
O689       Zr708   2.336   1_556  S
O689       Zr710   2.331   1_455  S
H690        O691   0.963   1_565  S
O691       Zr709   2.342       .  S
O691       Zr711   2.328       .  S
O692       Zr708   2.429       .  S
O692        C715   1.291       .  A
O693       Zr709   2.448       .  S
O693        C716   1.294       .  A
O694       Zr710   2.432   1_455  S
O694        C717   1.290       .  A
O695       Zr711   2.441   1_455  S
O695        C718   1.292       .  A
O696       Zr711   2.459       .  S
O696        C719   1.296       .  A
O697       Zr710   2.429       .  S
O697        C720   1.290       .  A
O698       Zr712   2.483   1_556  S
O698        C721   1.300       .  A
O699       Zr712   2.472       .  S
O699        C722   1.299       .  A
O700       Zr710   2.406       .  S
O700        C721   1.287       .  A
O701       Zr711   2.435       .  S
O701        C722   1.292       .  A
O702       Zr708   2.430   1_556  S
O702        C717   1.291       .  A
O703       Zr709   2.446   1_556  S
O703        C720   1.293       .  A
O704       Zr709   2.436       .  S
O704        C719   1.291       .  A
O705       Zr708   2.436       .  S
O705        C718   1.292       .  A
O706       Zr712   2.470   1_455  S
O706        C715   1.298       .  A
O707       Zr712   2.458       .  S
O707        C716   1.296       .  A
Zr708       O714   2.334   1_554  S
Zr708       O726   2.343       .  S
Zr709       O713   2.347       .  S
Zr709       O724   2.346   1_554  S
Zr710       O714   2.337   1_655  S
Zr710       O724   2.340       .  S
Zr711       O713   2.351       .  S
Zr711       O726   2.362   1_655  S
Zr712       O713   2.359       .  S
Zr712       O714   2.340   1_654  S
Zr712       O726   2.358   1_655  S
Zr712       O724   2.357   1_554  S
C715       C1072   1.488       .  S
C716       C1600   1.487       .  S
C717       C1420   1.474       .  S
C718       C1204   1.477       .  S
C719       C1348   1.491       .  S
C720       C1528   1.483       .  S
C721       C1492   1.486       .  S
C722       C1288   1.491       .  S
H723        O724   0.966       .  S
H725        O726   0.966       .  S
O727       Zr763   2.435       .  S
O727        C738   1.291       .  A
O728       Zr762   2.460       .  S
O728        C739   1.296       .  A
O729       Zr735   2.432       .  S
O729        C740   1.291       .  A
O730       Zr735   2.432       .  S
O730        C741   1.291       .  A
O731       Zr765   2.435       .  S
O731        C741   1.292       .  A
O732       Zr764   2.435       .  S
O732        C740   1.291       .  A
O733       Zr735   2.446       .  S
O733        C739   1.293       .  A
O734       Zr735   2.444       .  S
O734        C738   1.293       .  A
Zr735       O736   2.339       .  S
Zr735       O737   2.338       .  S
Zr735       O745   2.338       .  S
Zr735       O743   2.341       .  S
O736       Zr762   2.352       .  S
O736       Zr765   2.343       .  S
O737       Zr763   2.338       .  S
O737       Zr764   2.332       .  S
C738        C916   1.476       .  S
C739        C892   1.481       .  S
C740        C904   1.474       .  S
C741        C880   1.478       .  S
H742        O743   0.966       .  S
O743       Zr762   2.349       .  S
O743       Zr764   2.341       .  S
H744        O745   0.965       .  S
O745       Zr763   2.336       .  S
O745       Zr765   2.334       .  S
O746       Zr762   2.463       .  S
O746        C769   1.297       .  A
O747       Zr763   2.438       .  S
O747        C770   1.291       .  A
O748       Zr764   2.429       .  S
O748        C771   1.291       .  A
O749       Zr765   2.439       .  S
O749        C772   1.292       .  A
O750       Zr765   2.453       .  S
O750        C773   1.294       .  A
O751       Zr764   2.437       .  S
O751        C774   1.292       .  A
O752       Zr766   2.434       .  S
O752        C775   1.291       .  A
O753       Zr766   2.446       .  S
O753        C776   1.293       .  A
O754       Zr764   2.427       .  S
O754        C775   1.290       .  A
O755       Zr765   2.433       .  S
O755        C776   1.291       .  A
O756       Zr762   2.470       .  S
O756        C771   1.298       .  A
O757       Zr763   2.435       .  S
O757        C774   1.291       .  A
O758       Zr763   2.424       .  S
O758        C773   1.290       .  A
O759       Zr762   2.461       .  S
O759        C772   1.297       .  A
O760       Zr766   2.434       .  S
O760        C769   1.292       .  A
O761       Zr766   2.444       .  S
O761        C770   1.292       .  A
Zr762       O768   2.348       .  S
Zr762       O780   2.354       .  S
Zr763       O767   2.344       .  S
Zr763       O778   2.334       .  S
Zr764       O768   2.342       .  S
Zr764       O778   2.337       .  S
Zr765       O767   2.338       .  S
Zr765       O780   2.348       .  S
Zr766       O767   2.338       .  S
Zr766       O768   2.347       .  S
Zr766       O780   2.347       .  S
Zr766       O778   2.345       .  S
C769        C868   1.485       .  S
C770        C841   1.472       .  S
C771        C784   1.492       .  S
C772        C808   1.488       .  S
C773        C820   1.479       .  S
C774        C796   1.480       .  S
C775        C832   1.468       .  S
C776        C856   1.478       .  S
H777        O778   0.965       .  S
H779        O780   0.966       .  S
C781        C782   1.407       .  A
C781        C786   1.415       .  A
C782        C783   1.407       .  A
C782        H791   1.084       .  S
C783        C784   1.417       .  A
C783        S787   1.801       .  S
C784        C785   1.406       .  A
C785        C786   1.400       .  A
C785        H792   1.084       .  S
C786        S788   1.800       .  S
S787        H790   1.406       .  S
S788        H789   1.407       .  S
C793        C794   1.405       .  A
C793        C798   1.409       .  A
C794        C795   1.401       .  A
C794        H803   1.084       .  S
C795        C796   1.416       .  A
C795        S799   1.804       .  S
C796        C797   1.405       .  A
C797        C798   1.396       .  A
C797        H804   1.083       .  S
C798        S800   1.801       .  S
S799        H802   1.407       .  S
S800        H801   1.407       .  S
C805        C806   1.406       .  A
C805        C810   1.420       .  A
C806        C807   1.406       .  A
C806        H815   1.082       .  S
C807        C808   1.415       .  A
C807        S811   1.809       .  S
C808        C809   1.403       .  A
C809        C810   1.407       .  A
C809        H816   1.083       .  S
C810        S812   1.807       .  S
S811        H814   1.407       .  S
S812        H813   1.407       .  S
C817        C818   1.408       .  A
C817        C822   1.417       .  A
C818        C819   1.397       .  A
C818        H827   1.083       .  S
C819        C820   1.409       .  A
C819        S823   1.801       .  S
C820        C821   1.406       .  A
C821        C822   1.403       .  A
C821        H828   1.084       .  S
C822        S824   1.803       .  S
S823        H826   1.406       .  S
S824        H825   1.407       .  S
C829        C830   1.404       .  A
C829        C834   1.414       .  A
C830        C831   1.395       .  A
C830        H839   1.084       .  S
C831        C832   1.412       .  A
C831        S835   1.806       .  S
C832        C833   1.402       .  A
C833        C834   1.398       .  A
C833        H840   1.084       .  S
C834        S836   1.803       .  S
S835        H838   1.407       .  S
S836        H837   1.407       .  S
C841        C842   1.400       .  A
C841        C846   1.407       .  A
C842        C843   1.401       .  A
C842        H851   1.084       .  S
C843        C844   1.420       .  A
C843        S847   1.802       .  S
C844        C845   1.409       .  A
C845        C846   1.402       .  A
C845        H852   1.082       .  S
C846        S848   1.807       .  S
S847        H850   1.407       .  S
S848        H849   1.407       .  S
C853        C854   1.403       .  A
C853        C858   1.413       .  A
C854        C855   1.402       .  A
C854        H863   1.084       .  S
C855        C856   1.415       .  A
C855        S859   1.803       .  S
C856        C857   1.404       .  A
C857        C858   1.397       .  A
C857        H864   1.084       .  S
C858        S860   1.804       .  S
S859        H862   1.405       .  S
S860        H861   1.407       .  S
C865        C866   1.407       .  A
C865        C870   1.416       .  A
C866        C867   1.403       .  A
C866        H875   1.084       .  S
C867        C868   1.413       .  A
C867        S871   1.805       .  S
C868        C869   1.406       .  A
C869        C870   1.404       .  A
C869        H876   1.084       .  S
C870        S872   1.803       .  S
S871        H874   1.407       .  S
S872        H873   1.407       .  S
C877        C878   1.401       .  A
C877        C882   1.409       .  A
C878        C879   1.396       .  A
C878        H887   1.084       .  S
C879        C880   1.416       .  A
C879        S883   1.804       .  S
C880        C881   1.407       .  A
C881        C882   1.399       .  A
C881        H888   1.084       .  S
C882        S884   1.803       .  S
S883        H886   1.402       .  S
S884        H885   1.407       .  S
C889        C890   1.412       .  A
C889        C894   1.424       .  A
C890        C891   1.401       .  A
C890        H899   1.083       .  S
C891        C892   1.409       .  A
C891        S895   1.805       .  S
C892        C893   1.400       .  A
C893        C894   1.408       .  A
C893        H900   1.079       .  S
C894        S896   1.810       .  S
S895        H898   1.402       .  S
S896        H897   1.407       .  S
C901        C902   1.401       .  A
C901        C906   1.410       .  A
C902        C903   1.396       .  A
C902        H911   1.084       .  S
C903        C904   1.414       .  A
C903        S907   1.800       .  S
C904        C905   1.403       .  A
C905        C906   1.397       .  A
C905        H912   1.083       .  S
C906        S908   1.802       .  S
S907        H910   1.406       .  S
S908        H909   1.407       .  S
C913        C914   1.403       .  A
C913        C918   1.414       .  A
C914        C915   1.395       .  A
C914        H923   1.084       .  S
C915        C916   1.412       .  A
C915        S919   1.803       .  S
C916        C917   1.406       .  A
C917        C918   1.402       .  A
C917        H924   1.084       .  S
C918        S920   1.804       .  S
S919        H922   1.406       .  S
S920        H921   1.405       .  S
C925        C926   1.401       .  A
C925        C930   1.410       .  A
C926        C927   1.402       .  A
C926        H935   1.084       .  S
C927        C928   1.418       .  A
C927        S931   1.800       .  S
C928        C929   1.405       .  A
C929        C930   1.398       .  A
C929        H936   1.084       .  S
C930        S932   1.803       .  S
S931        H934   1.408       .  S
S932        H933   1.406       .  S
C937        C938   1.401       .  A
C937        C942   1.411       .  A
C938        C939   1.395       .  A
C938        H947   1.085       .  S
C939        C940   1.416       .  A
C939        S943   1.804       .  S
C940        C941   1.408       .  A
C941        C942   1.404       .  A
C941        H948   1.084       .  S
C942        S944   1.799       .  S
S943        H946   1.408       .  S
S944        H945   1.406       .  S
C949        C950   1.402       .  A
C949        C954   1.414       .  A
C950        C951   1.394       .  A
C950        H959   1.082       .  S
C951        C952   1.417       .  A
C951        S955   1.805       .  S
C952        C953   1.406       .  A
C953        C954   1.401       .  A
C953        H960   1.084       .  S
C954        S956   1.802       .  S
S955        H958   1.407       .  S
S956        H957   1.407       .  S
C961        C962   1.402       .  A
C961        C966   1.413       .  A
C962        C963   1.399       .  A
C962        H971   1.079       .  S
C963        C964   1.412       .  A
C963        S967   1.804       .  S
C964        C965   1.406       .  A
C965        C966   1.405       .  A
C965        H972   1.084       .  S
C966        S968   1.803       .  S
S967        H970   1.407       .  S
S968        H969   1.406       .  S
C973        C974   1.405       .  A
C973        C978   1.414       .  A
C974        C975   1.397       .  A
C974        H983   1.084       .  S
C975        C976   1.415       .  A
C975        S979   1.805       .  S
C976        C977   1.405       .  A
C977        C978   1.403       .  A
C977        H984   1.084       .  S
C978        S980   1.802       .  S
S979        H982   1.407       .  S
S980        H981   1.407       .  S
C985        C986   1.407       .  A
C985        C990   1.412       .  A
C986        C987   1.403       .  A
C986        H995   1.084       .  S
C987        C988   1.414       .  A
C987        S991   1.801       .  S
C988        C989   1.404       .  A
C989        C990   1.391       .  A
C989        H996   1.084       .  S
C990        S992   1.799       .  S
S991        H994   1.408       .  S
S992        H993   1.407       .  S
C997        C998   1.401       .  A
C997       C1002   1.411       .  A
C998        C999   1.401       .  A
C998       H1007   1.084       .  S
C999       C1000   1.421       .  A
C999       S1003   1.799       .  S
C1000      C1001   1.408       .  A
C1001      C1002   1.397       .  A
C1001      H1008   1.084       .  S
C1002      S1004   1.806       .  S
S1003      H1006   1.408       .  S
S1004      H1005   1.407       .  S
C1009      C1010   1.403       .  A
C1009      C1014   1.410       .  A
C1010      C1011   1.404       .  A
C1010      H1019   1.084       .  S
C1011      C1012   1.416       .  A
C1011      S1015   1.799       .  S
C1012      C1013   1.404       .  A
C1013      C1014   1.398       .  A
C1013      H1020   1.084       .  S
C1014      S1016   1.802       .  S
S1015      H1018   1.407       .  S
S1016      H1017   1.407       .  S
C1021      C1022   1.404       .  A
C1021      C1026   1.416       .  A
C1022      C1023   1.393       .  A
C1022      H1031   1.082       .  S
C1023      C1024   1.414       .  A
C1023      S1027   1.805       .  S
C1024      C1025   1.403       .  A
C1025      C1026   1.399       .  A
C1025      H1032   1.084       .  S
C1026      S1028   1.800       .  S
S1027      H1030   1.407       .  S
S1028      H1029   1.407       .  S
C1033      C1034   1.407       .  A
C1033      C1038   1.411       .  A
C1034      C1035   1.396       .  A
C1034      H1043   1.084       .  S
C1035      C1036   1.411       .  A
C1035      S1039   1.805       .  S
C1036      C1037   1.408       .  A
C1037      C1038   1.407       .  A
C1037      H1044   1.084       .  S
C1038      S1040   1.802       .  S
S1039      H1042   1.406       .  S
S1040      H1041   1.407       .  S
C1045      C1046   1.399       .  A
C1045      C1050   1.412       .  A
C1046      C1047   1.390       .  A
C1046      H1055   1.085       .  S
C1047      C1048   1.412       .  A
C1047      S1051   1.805       .  S
C1048      C1049   1.404       .  A
C1049      C1050   1.401       .  A
C1049      H1056   1.084       .  S
C1050      S1052   1.802       .  S
S1051      H1054   1.407       .  S
S1052      H1053   1.406       .  S
C1057      C1058   1.404       .  A
C1057      C1062   1.415       .  A
C1058      C1059   1.400       .  A
C1058      H1067   1.083       .  S
C1059      C1060   1.410       .  A
C1059      S1063   1.808       .  S
C1060      C1061   1.406       .  A
C1061      C1062   1.406       .  A
C1061      H1068   1.084       .  S
C1062      S1064   1.803       .  S
S1063      H1066   1.407       .  S
S1064      H1065   1.406       .  S
C1069      C1070   1.404   1_554  A
C1069      C1074   1.415       .  A
C1070      C1071   1.399       .  A
C1070      H1079   1.084       .  S
C1071      C1072   1.416   1_556  A
C1071      S1075   1.804       .  S
C1072      C1073   1.403       .  A
C1073      C1074   1.405       .  A
C1073      H1080   1.077       .  S
C1074      S1076   1.801       .  S
S1075      H1078   1.405       .  S
S1076      H1077   1.407       .  S
C1081      C1082   1.407       .  A
C1081      C1086   1.410       .  A
C1082      C1083   1.409       .  A
C1082      H1091   1.084       .  S
C1083      C1084   1.416       .  A
C1083      S1087   1.800       .  S
C1084      C1085   1.406       .  A
C1085      C1086   1.390       .  A
C1085      H1092   1.084       .  S
C1086      S1088   1.806       .  S
S1087      H1090   1.406       .  S
S1088      H1089   1.407       .  S
C1093      C1094   1.403       .  A
C1093      C1098   1.416       .  A
C1094      C1095   1.396       .  A
C1094      H1103   1.084       .  S
C1095      C1096   1.414       .  A
C1095      S1099   1.804       .  S
C1096      C1097   1.404       .  A
C1097      C1098   1.402       .  A
C1097      H1104   1.084       .  S
C1098      S1100   1.802       .  S
S1099      H1102   1.407       .  S
S1100      H1101   1.407       .  S
C1105      C1106   1.403       .  A
C1105      C1110   1.415       .  A
C1106      C1107   1.399       .  A
C1106      H1115   1.084       .  S
C1107      C1108   1.415       .  A
C1107      S1111   1.805       .  S
C1108      C1109   1.404       .  A
C1109      C1110   1.405       .  A
C1109      H1116   1.084       .  S
C1110      S1112   1.801       .  S
S1111      H1114   1.407       .  S
S1112      H1113   1.407       .  S
C1117      C1118   1.401       .  A
C1117      C1122   1.414       .  A
C1118      C1119   1.402       .  A
C1118      H1127   1.084       .  S
C1119      C1120   1.417       .  A
C1119      S1123   1.804       .  S
C1120      C1121   1.406       .  A
C1121      C1122   1.411       .  A
C1121      H1128   1.083       .  S
C1122      S1124   1.806       .  S
S1123      H1126   1.407       .  S
S1124      H1125   1.407       .  S
C1129      C1130   1.403       .  A
C1129      C1134   1.413       .  A
C1130      C1131   1.396       .  A
C1130      H1139   1.084       .  S
C1131      C1132   1.410       .  A
C1131      S1135   1.805       .  S
C1132      C1133   1.405       .  A
C1133      C1134   1.405       .  A
C1133      H1140   1.084       .  S
C1134      S1136   1.804       .  S
S1135      H1138   1.406       .  S
S1136      H1137   1.406       .  S
C1141      C1142   1.408       .  A
C1141      C1146   1.415       .  A
C1142      C1143   1.406       .  A
C1142      H1151   1.084       .  S
C1143      C1144   1.414       .  A
C1143      S1147   1.801       .  S
C1144      C1145   1.407       .  A
C1145      C1146   1.399       .  A
C1145      H1152   1.084       .  S
C1146      S1148   1.804       .  S
S1147      H1150   1.408       .  S
S1148      H1149   1.406       .  S
C1153      C1154   1.404       .  A
C1153      C1158   1.412       .  A
C1154      C1155   1.403       .  A
C1154      H1163   1.084       .  S
C1155      C1156   1.412       .  A
C1155      S1159   1.800       .  S
C1156      C1157   1.404       .  A
C1157      C1158   1.405       .  A
C1157      H1164   1.084       .  S
C1158      S1160   1.802       .  S
S1159      H1162   1.405       .  S
S1160      H1161   1.405       .  S
C1165      C1166   1.398       .  A
C1165      C1170   1.414       .  A
C1166      C1167   1.394       .  A
C1166      H1175   1.079       .  S
C1167      C1168   1.411       .  A
C1167      S1171   1.806       .  S
C1168      C1169   1.402       .  A
C1169      C1170   1.402       .  A
C1169      H1176   1.084       .  S
C1170      S1172   1.805       .  S
S1171      H1174   1.406       .  S
S1172      H1173   1.403       .  S
C1177      C1178   1.402       .  A
C1177      C1182   1.409       .  A
C1178      C1179   1.399       .  A
C1178      H1187   1.084       .  S
C1179      C1180   1.411       .  A
C1179      S1183   1.801       .  S
C1180      C1181   1.402       .  A
C1181      C1182   1.393       .  A
C1181      H1188   1.084       .  S
C1182      S1184   1.804       .  S
S1183      H1186   1.407       .  S
S1184      H1185   1.407       .  S
C1189      C1190   1.403       .  A
C1189      C1194   1.416       .  A
C1190      C1191   1.396       .  A
C1190      H1199   1.084       .  S
C1191      C1192   1.412       .  A
C1191      S1195   1.799       .  S
C1192      C1193   1.406       .  A
C1193      C1194   1.408       .  A
C1193      H1200   1.084       .  S
C1194      S1196   1.798       .  S
S1195      H1198   1.407       .  S
S1196      H1197   1.406       .  S
C1201      C1202   1.405       .  A
C1201      C1206   1.415       .  A
C1202      C1203   1.403       .  A
C1202      H1211   1.084   1_545  S
C1203      C1204   1.416       .  A
C1203      S1207   1.805   1_545  S
C1204      C1205   1.402       .  A
C1205      C1206   1.396       .  A
C1205      H1212   1.084       .  S
C1206      S1208   1.803       .  S
S1207      H1210   1.405       .  S
S1208      H1209   1.407       .  S
C1213      C1214   1.408       .  A
C1213      C1218   1.418       .  A
C1214      C1215   1.408       .  A
C1214      H1223   1.083       .  S
C1215      C1216   1.415       .  A
C1215      S1219   1.801       .  S
C1216      C1217   1.403       .  A
C1217      C1218   1.395       .  A
C1217      H1224   1.085       .  S
C1218      S1220   1.805       .  S
S1219      H1222   1.406       .  S
S1220      H1221   1.407       .  S
C1225      C1226   1.401       .  A
C1225      C1230   1.413       .  A
C1226      C1227   1.400       .  A
C1226      H1235   1.082       .  S
C1227      C1228   1.412       .  A
C1227      S1231   1.801       .  S
C1228      C1229   1.404       .  A
C1229      C1230   1.403       .  A
C1229      H1236   1.084       .  S
C1230      S1232   1.802       .  S
S1231      H1234   1.407       .  S
S1232      H1233   1.404       .  S
C1237      C1238   1.403       .  A
C1237      C1242   1.415       .  A
C1238      C1239   1.401       .  A
C1238      H1247   1.084       .  S
C1239      C1240   1.417       .  A
C1239      S1243   1.804       .  S
C1240      C1241   1.406       .  A
C1241      C1242   1.405       .  A
C1241      H1248   1.084       .  S
C1242      S1244   1.798       .  S
S1243      H1246   1.408       .  S
S1244      H1245   1.406       .  S
C1249      C1250   1.406       .  A
C1249      C1254   1.413       .  A
C1250      C1251   1.405       .  A
C1250      H1259   1.083       .  S
C1251      C1252   1.409       .  A
C1251      S1255   1.805       .  S
C1252      C1253   1.399       .  A
C1253      C1254   1.392       .  A
C1253      H1260   1.085       .  S
C1254      S1256   1.801       .  S
S1255      H1258   1.407       .  S
S1256      H1257   1.408       .  S
C1261      C1262   1.406       .  A
C1261      C1266   1.414       .  A
C1262      C1263   1.400       .  A
C1262      H1271   1.084       .  S
C1263      C1264   1.406       .  A
C1263      S1267   1.807       .  S
C1264      C1265   1.403       .  A
C1265      C1266   1.405       .  A
C1265      H1272   1.084       .  S
C1266      S1268   1.805       .  S
S1267      H1270   1.407       .  S
S1268      H1269   1.402       .  S
C1273      C1274   1.407       .  A
C1273      C1278   1.413       .  A
C1274      C1275   1.405       .  A
C1274      H1283   1.084       .  S
C1275      C1276   1.413       .  A
C1275      S1279   1.800       .  S
C1276      C1277   1.403       .  A
C1277      C1278   1.397       .  A
C1277      H1284   1.084       .  S
C1278      S1280   1.803       .  S
S1279      H1282   1.403       .  S
S1280      H1281   1.406       .  S
C1285      C1286   1.404       .  A
C1285      C1290   1.416       .  A
C1286      C1287   1.403       .  A
C1286      H1295   1.084   1_655  S
C1287      C1288   1.414       .  A
C1287      S1291   1.795   1_655  S
C1288      C1289   1.407       .  A
C1289      C1290   1.403       .  A
C1289      H1296   1.084       .  S
C1290      S1292   1.803       .  S
S1291      H1294   1.407       .  S
S1292      H1293   1.406       .  S
C1297      C1298   1.406       .  A
C1297      C1302   1.421       .  A
C1298      C1299   1.398       .  A
C1298      H1307   1.084       .  S
C1299      C1300   1.414       .  A
C1299      S1303   1.806       .  S
C1300      C1301   1.402       .  A
C1301      C1302   1.406       .  A
C1301      H1308   1.084       .  S
C1302      S1304   1.799       .  S
S1303      H1306   1.407       .  S
S1304      H1305   1.407       .  S
C1309      C1310   1.399       .  A
C1309      C1314   1.415       .  A
C1310      C1311   1.397       .  A
C1310      H1319   1.084       .  S
C1311      C1312   1.418       .  A
C1311      S1315   1.804       .  S
C1312      C1313   1.406       .  A
C1313      C1314   1.408       .  A
C1313      H1320   1.084       .  S
C1314      S1316   1.802       .  S
S1315      H1318   1.407       .  S
S1316      H1317   1.407       .  S
C1321      C1322   1.404       .  A
C1321      C1326   1.416       .  A
C1322      C1323   1.402       .  A
C1322      H1331   1.084       .  S
C1323      C1324   1.414       .  A
C1323      S1327   1.804       .  S
C1324      C1325   1.406       .  A
C1325      C1326   1.409       .  A
C1325      H1332   1.084       .  S
C1326      S1328   1.800       .  S
S1327      H1330   1.407       .  S
S1328      H1329   1.403       .  S
C1333      C1334   1.403       .  A
C1333      C1338   1.415       .  A
C1334      C1335   1.408       .  A
C1334      H1343   1.083       .  S
C1335      C1336   1.416       .  A
C1335      S1339   1.807       .  S
C1336      C1337   1.403       .  A
C1337      C1338   1.401       .  A
C1337      H1344   1.083       .  S
C1338      S1340   1.810       .  S
S1339      H1342   1.407       .  S
S1340      H1341   1.407       .  S
C1345      C1346   1.402       .  A
C1345      C1350   1.414       .  A
C1346      C1347   1.406       .  A
C1346      H1355   1.083   1_545  S
C1347      C1348   1.420       .  A
C1347      S1351   1.809   1_545  S
C1348      C1349   1.405       .  A
C1349      C1350   1.401       .  A
C1349      H1356   1.084       .  S
C1350      S1352   1.804       .  S
S1351      H1354   1.407       .  S
S1352      H1353   1.407       .  S
C1357      C1358   1.403       .  A
C1357      C1362   1.412       .  A
C1358      C1359   1.400       .  A
C1358      H1367   1.084       .  S
C1359      C1360   1.412       .  A
C1359      S1363   1.805       .  S
C1360      C1361   1.402       .  A
C1361      C1362   1.401       .  A
C1361      H1368   1.083       .  S
C1362      S1364   1.802       .  S
S1363      H1366   1.403       .  S
S1364      H1365   1.406       .  S
C1369      C1370   1.408       .  A
C1369      C1374   1.418       .  A
C1370      C1371   1.392       .  A
C1370      H1379   1.083       .  S
C1371      C1372   1.411       .  A
C1371      S1375   1.806       .  S
C1372      C1373   1.407       .  A
C1373      C1374   1.409       .  A
C1373      H1380   1.084       .  S
C1374      S1376   1.800       .  S
S1375      H1378   1.408       .  S
S1376      H1377   1.407       .  S
C1381      C1382   1.412       .  A
C1381      C1386   1.417       .  A
C1382      C1383   1.400       .  A
C1382      H1391   1.081   1_655  S
C1383      C1384   1.408       .  A
C1383      S1387   1.804   1_655  S
C1384      C1385   1.406       .  A
C1385      C1386   1.405       .  A
C1385      H1392   1.084       .  S
C1386      S1388   1.801       .  S
S1387      H1390   1.406   1_455  S
S1388      H1389   1.408       .  S
C1393      C1394   1.402       .  A
C1393      C1398   1.413       .  A
C1394      C1395   1.392       .  A
C1394      H1403   1.084       .  S
C1395      C1396   1.410       .  A
C1395      S1399   1.804       .  S
C1396      C1397   1.402       .  A
C1397      C1398   1.396       .  A
C1397      H1404   1.084       .  S
C1398      S1400   1.802       .  S
S1399      H1402   1.407       .  S
S1400      H1401   1.407       .  S
C1405      C1406   1.402       .  A
C1405      C1410   1.406       .  A
C1406      C1407   1.399       .  A
C1406      H1415   1.084       .  S
C1407      C1408   1.411       .  A
C1407      S1411   1.803       .  S
C1408      C1409   1.399       .  A
C1409      C1410   1.390       .  A
C1409      H1416   1.081       .  S
C1410      S1412   1.806       .  S
S1411      H1414   1.406       .  S
S1412      H1413   1.407       .  S
C1417      C1418   1.404       .  A
C1417      C1422   1.409       .  A
C1418      C1419   1.400       .  A
C1418      H1427   1.084       .  S
C1419      C1420   1.415       .  A
C1419      S1423   1.805       .  S
C1420      C1421   1.404       .  A
C1421      C1422   1.393       .  A
C1421      H1428   1.084       .  S
C1422      S1424   1.803   1_545  S
S1423      H1426   1.406       .  S
S1424      H1425   1.407   1_565  S
C1429      C1430   1.400       .  A
C1429      C1434   1.410       .  A
C1430      C1431   1.389       .  A
C1430      H1439   1.084       .  S
C1431      C1432   1.410       .  A
C1431      S1435   1.803       .  S
C1432      C1433   1.403       .  A
C1433      C1434   1.397       .  A
C1433      H1440   1.084       .  S
C1434      S1436   1.799       .  S
S1435      H1438   1.404       .  S
S1436      H1437   1.406       .  S
C1441      C1442   1.405       .  A
C1441      C1446   1.413       .  A
C1442      C1443   1.399       .  A
C1442      H1451   1.083       .  S
C1443      C1444   1.410       .  A
C1443      S1447   1.803       .  S
C1444      C1445   1.400       .  A
C1445      C1446   1.394       .  A
C1445      H1452   1.084       .  S
C1446      S1448   1.804       .  S
S1447      H1450   1.407       .  S
S1448      H1449   1.408       .  S
C1453      C1454   1.402   1_655  A
C1453      C1458   1.414       .  A
C1454      C1455   1.396       .  A
C1454      H1463   1.084       .  S
C1455      C1456   1.413   1_455  A
C1455      S1459   1.804       .  S
C1456      C1457   1.402       .  A
C1457      C1458   1.395       .  A
C1457      H1464   1.084       .  S
C1458      S1460   1.805       .  S
S1459      H1462   1.407       .  S
S1460      H1461   1.407       .  S
C1465      C1466   1.405       .  A
C1465      C1470   1.415       .  A
C1466      C1467   1.396       .  A
C1466      H1475   1.083       .  S
C1467      C1468   1.412       .  A
C1467      S1471   1.805       .  S
C1468      C1469   1.402       .  A
C1469      C1470   1.403       .  A
C1469      H1476   1.084       .  S
C1470      S1472   1.796       .  S
S1471      H1474   1.406       .  S
S1472      H1473   1.406       .  S
C1477      C1478   1.403       .  A
C1477      C1482   1.418       .  A
C1478      C1479   1.398       .  A
C1478      H1487   1.084       .  S
C1479      C1480   1.414       .  A
C1479      S1483   1.799       .  S
C1480      C1481   1.404       .  A
C1481      C1482   1.408       .  A
C1481      H1488   1.084       .  S
C1482      S1484   1.796       .  S
S1483      H1486   1.407       .  S
S1484      H1485   1.407       .  S
C1489      C1490   1.407   1_655  A
C1489      C1494   1.413       .  A
C1490      C1491   1.409       .  A
C1490      H1499   1.084       .  S
C1491      C1492   1.415   1_455  A
C1491      S1495   1.802       .  S
C1492      C1493   1.406       .  A
C1493      C1494   1.396       .  A
C1493      H1500   1.085       .  S
C1494      S1496   1.804       .  S
S1495      H1498   1.405       .  S
S1496      H1497   1.407       .  S
C1501      C1502   1.403       .  A
C1501      C1506   1.408       .  A
C1502      C1503   1.405       .  A
C1502      H1511   1.084       .  S
C1503      C1504   1.415       .  A
C1503      S1507   1.802       .  S
C1504      C1505   1.405       .  A
C1505      C1506   1.392       .  A
C1505      H1512   1.084       .  S
C1506      S1508   1.806       .  S
S1507      H1510   1.404       .  S
S1508      H1509   1.406       .  S
C1513      C1514   1.402       .  A
C1513      C1518   1.410       .  A
C1514      C1515   1.403       .  A
C1514      H1523   1.084       .  S
C1515      C1516   1.416       .  A
C1515      S1519   1.805       .  S
C1516      C1517   1.398       .  A
C1517      C1518   1.393       .  A
C1517      H1524   1.079       .  S
C1518      S1520   1.805       .  S
S1519      H1522   1.401       .  S
S1520      H1521   1.407       .  S
C1525      C1526   1.402       .  A
C1525      C1530   1.411       .  A
C1526      C1527   1.400       .  A
C1526      H1535   1.084   1_545  S
C1527      C1528   1.417       .  A
C1527      S1531   1.800   1_545  S
C1528      C1529   1.406       .  A
C1529      C1530   1.397       .  A
C1529      H1536   1.084       .  S
C1530      S1532   1.804       .  S
S1531      H1534   1.405       .  S
S1532      H1533   1.407       .  S
C1537      C1538   1.407       .  A
C1537      C1542   1.412       .  A
C1538      C1539   1.401       .  A
C1538      H1547   1.084       .  S
C1539      C1540   1.414       .  A
C1539      S1543   1.801       .  S
C1540      C1541   1.408       .  A
C1541      C1542   1.397       .  A
C1541      H1548   1.084       .  S
C1542      S1544   1.804       .  S
S1543      H1546   1.407       .  S
S1544      H1545   1.407       .  S
C1549      C1550   1.405       .  A
C1549      C1554   1.419       .  A
C1550      C1551   1.398       .  A
C1550      H1559   1.084       .  S
C1551      C1552   1.412       .  A
C1551      S1555   1.806       .  S
C1552      C1553   1.403       .  A
C1553      C1554   1.405       .  A
C1553      H1560   1.084       .  S
C1554      S1556   1.799       .  S
S1555      H1558   1.407       .  S
S1556      H1557   1.406       .  S
C1561      C1562   1.406   1_554  A
C1561      C1566   1.409       .  A
C1562      C1563   1.407       .  A
C1562      H1571   1.084       .  S
C1563      C1564   1.417   1_556  A
C1563      S1567   1.801       .  S
C1564      C1565   1.405       .  A
C1565      C1566   1.393       .  A
C1565      H1572   1.084       .  S
C1566      S1568   1.798       .  S
S1567      H1570   1.407       .  S
S1568      H1569   1.405       .  S
C1573      C1574   1.406       .  A
C1573      C1578   1.410       .  A
C1574      C1575   1.409       .  A
C1574      H1583   1.084       .  S
C1575      C1576   1.416       .  A
C1575      S1579   1.799       .  S
C1576      C1577   1.406       .  A
C1577      C1578   1.393       .  A
C1577      H1584   1.084       .  S
C1578      S1580   1.805       .  S
S1579      H1582   1.406       .  S
S1580      H1581   1.407       .  S
C1585      C1586   1.404       .  A
C1585      C1590   1.414       .  A
C1586      C1587   1.408       .  A
C1586      H1595   1.084       .  S
C1587      C1588   1.422       .  A
C1587      S1591   1.799       .  S
C1588      C1589   1.404       .  A
C1589      C1590   1.394       .  A
C1589      H1596   1.084       .  S
C1590      S1592   1.800       .  S
S1591      H1594   1.407       .  S
S1592      H1593   1.407       .  S
C1597      C1598   1.403       .  A
C1597      C1602   1.414   1_554  A
C1598      C1599   1.402       .  A
C1598      H1607   1.084       .  S
C1599      C1600   1.416       .  A
C1599      S1603   1.804       .  S
C1600      C1601   1.406   1_554  A
C1601      C1602   1.405       .  A
C1601      H1608   1.084       .  S
C1602      S1604   1.804       .  S
S1603      H1606   1.408       .  S
S1604      H1605   1.407       .  S
C1609      C1610   1.406       .  A
C1609      C1614   1.410       .  A
C1610      C1611   1.404       .  A
C1610      H1619   1.084       .  S
C1611      C1612   1.415       .  A
C1611      S1615   1.801       .  S
C1612      C1613   1.408       .  A
C1613      C1614   1.396       .  A
C1613      H1620   1.084       .  S
C1614      S1616   1.805       .  S
S1615      H1618   1.407       .  S
S1616      H1617   1.407       .  S
C1621      C1622   1.407       .  A
C1621      C1626   1.419       .  A
C1622      C1623   1.406       .  A
C1622      H1631   1.084       .  S
C1623      C1624   1.413       .  A
C1623      S1627   1.797       .  S
C1624      C1625   1.403       .  A
C1625      C1626   1.401       .  A
C1625      H1632   1.084       .  S
C1626      S1628   1.805       .  S
S1627      H1630   1.405       .  S
S1628      H1629   1.407       .  S
C1633      C1634   1.399   1_554  A
C1633      C1638   1.410       .  A
C1634      C1635   1.403       .  A
C1634      H1643   1.079       .  S
C1635      C1636   1.419   1_556  A
C1635      S1639   1.809       .  S
C1636      C1637   1.408       .  A
C1637      C1638   1.398       .  A
C1637      H1644   1.084       .  S
C1638      S1640   1.806       .  S
S1639      H1642   1.407       .  S
S1640      H1641   1.402       .  S
