geometry optimzed in LAMMPS
_audit_creation_date              2020-12-01 
_audit_creation_method            'lammps2cif' 
_symmetry_space_group_name_H-M    'P1' 
_symmetry_Int_Tables_number       1 
_symmetry_cell_setting            triclinic 
loop_ 
_symmetry_equiv_pos_as_xyz 
  x,y,z 
_cell_length_a                    40.47644949 
_cell_length_b                    40.43522253411459 
_cell_length_c                    55.722035567465305 
_cell_angle_alpha                 89.96484560384722 
_cell_angle_beta                  90.01576919282478 
_cell_angle_gamma                 89.88707581687854 
loop_ 
_atom_site_label 
_atom_site_type_symbol 
_atom_site_fract_x 
_atom_site_fract_y 
_atom_site_fract_z 
_atom_site_charge 
O1          O  0.81814832  0.85384082  0.61698524    -0.74600
O2          O  0.85867231  0.93952092  0.62167335    -0.74600
O3          O  0.85423770  0.89209526  0.58714095    -0.74700
O4          O  0.82195417  0.90087294  0.65139014    -0.74700
O5          O  0.86841122  0.87831788  0.66539044    -0.74600
O6          O  0.90016010  0.86822209  0.60091887    -0.74600
O7          O  0.90491076  0.91539688  0.63480028    -0.74600
O8          O  0.86406412  0.83093933  0.63135715    -0.74700
Ni9        Ni  0.83661189  0.89751725  0.61880581     1.25400
Ni10       Ni  0.88599843  0.87244782  0.63363216     1.25400
C11         C  0.83447477  0.82816057  0.62351679     0.87600
C12         C  0.88877509  0.94129301  0.62873681     0.87500
C13         C  0.88216219  0.87809127  0.58338545     0.87600
C14         C  0.83969658  0.89081772  0.66899147     0.87700
O15         O  0.13890962  0.19125315  0.64353465    -0.74600
O16         O  0.05489833  0.14744443  0.64304368    -0.74600
O17         O  0.08817222  0.18596874  0.67469571    -0.74700
O18         O  0.10579114  0.15289419  0.61190382    -0.74700
O19         O  0.12884922  0.10786686  0.62770152    -0.74600
O20         O  0.11183848  0.14136239  0.69075478    -0.74600
O21         O  0.07836003  0.10289448  0.65941807    -0.74600
O22         O  0.16203358  0.14615697  0.65924639    -0.74700
Ni23       Ni  0.09604534  0.17096868  0.64273865     1.25400
Ni24       Ni  0.12102537  0.12293233  0.65983604     1.25400
C25         C  0.16434212  0.17594440  0.65165777     0.87600
C26         C  0.05287253  0.11786399  0.65116682     0.87500
C27         C  0.09792104  0.16966030  0.69308013     0.87600
C28         C  0.12043462  0.12501441  0.60933417     0.87700
O29         O  0.14933710  0.25168576  0.90917131    -0.74600
O30         O  0.06521425  0.29593019  0.90564930    -0.74600
O31         O  0.09933770  0.25435259  0.87666456    -0.74700
O32         O  0.11495621  0.29289139  0.93809137    -0.74700
O33         O  0.14010790  0.33550133  0.92075016    -0.74600
O34         O  0.12277323  0.29798107  0.85917551    -0.74600
O35         O  0.09013068  0.33940178  0.88898912    -0.74600
O36         O  0.17297987  0.29458328  0.89086925    -0.74700
Ni37       Ni  0.10631618  0.27213277  0.90800524     1.25400
Ni38       Ni  0.13229520  0.31839005  0.88930523     1.25400
C39         C  0.17502091  0.26597357  0.90057444     0.87600
C40         C  0.06414666  0.32537803  0.89714215     0.87500
C41         C  0.10841611  0.26983274  0.85775812     0.87600
C42         C  0.13051544  0.32030067  0.93968678     0.87700
O43         O  0.82218968  0.58118620  0.88363275    -0.74600
O44         O  0.85867874  0.49368081  0.88378105    -0.74600
O45         O  0.85562908  0.54372424  0.91567503    -0.74700
O46         O  0.82498481  0.53122376  0.85138682    -0.74700
O47         O  0.87188662  0.55227224  0.83725283    -0.74600
O48         O  0.90355154  0.56253517  0.90165175    -0.74600
O49         O  0.90557284  0.51370319  0.86858760    -0.74600
O50         O  0.86998906  0.60105180  0.87013430    -0.74700
Ni51       Ni  0.83865098  0.53670493  0.88407538     1.25400
Ni52       Ni  0.88945308  0.55805514  0.86890696     1.25400
C53         C  0.84012098  0.60557083  0.87687381     0.87600
C54         C  0.88831446  0.48946494  0.87634038     0.87500
C55         C  0.88465735  0.55514582  0.91932680     0.87600
C56         C  0.84303747  0.54030224  0.83367018     0.87700
O57         O  0.41714770  0.25164703  0.63883463    -0.74600
O58         O  0.50639679  0.28389552  0.63887452    -0.74600
O59         O  0.46870449  0.24819093  0.66986915    -0.74700
O60         O  0.45485347  0.28688976  0.60804601    -0.74700
O61         O  0.43802460  0.33362939  0.62518900    -0.74600
O62         O  0.45119223  0.29450695  0.68721020    -0.74600
O63         O  0.48863892  0.32998581  0.65673680    -0.74600
O64         O  0.40019736  0.29841738  0.65602561    -0.74700
Ni65       Ni  0.46239561  0.26595651  0.63830374     1.25400
Ni66       Ni  0.44392314  0.31577570  0.65688942     1.25400
C67         C  0.39393746  0.26985954  0.64730488     0.87600
C68         C  0.51201030  0.31241320  0.64800260     0.87500
C69         C  0.46205853  0.26480280  0.68885803     0.87600
C70         C  0.44436032  0.31667073  0.60627776     0.87700
O71         O  0.74923649  0.57430146  0.61827196    -0.74600
O72         O  0.70563885  0.49045291  0.62465466    -0.74600
O73         O  0.70765668  0.53818952  0.59056060    -0.74700
O74         O  0.74760806  0.52655530  0.65235962    -0.74700
O75         O  0.70439805  0.55101960  0.66953740    -0.74600
O76         O  0.66502945  0.56409127  0.60753326    -0.74600
O77         O  0.66267873  0.51605724  0.64123175    -0.74600
O78         O  0.70635010  0.59887643  0.63597306    -0.74700
Ni79       Ni  0.72907897  0.53142724  0.62086207     1.25400
Ni80       Ni  0.68308160  0.55830901  0.63918029     1.25400
C81         C  0.73491804  0.60039086  0.62625509     0.87600
C82         C  0.67654450  0.48954585  0.63369055     0.87500
C83         C  0.68001608  0.55350647  0.58876837     0.87600
C84         C  0.73285001  0.53716170  0.67118990     0.87700
O85         O  0.76009574  0.85923908  0.88684987    -0.74600
O86         O  0.72490203  0.94738645  0.88472986    -0.74600
O87         O  0.72572208  0.89797909  0.91746502    -0.74700
O88         O  0.76010165  0.90799137  0.85387137    -0.74700
O89         O  0.71268728  0.88922960  0.83865442    -0.74600
O90         O  0.67873257  0.87791825  0.90237888    -0.74600
O91         O  0.67797473  0.92731100  0.86971076    -0.74600
O92         O  0.71320714  0.83999431  0.87136206    -0.74700
Ni93       Ni  0.74439539  0.90399280  0.88621488     1.25400
Ni94       Ni  0.69397078  0.88302788  0.86996213     1.25400
C95         C  0.74233184  0.83502253  0.87953582     0.87600
C96         C  0.69514960  0.95162350  0.87742567     0.87500
C97         C  0.69688284  0.88571052  0.92032711     0.87600
C98         C  0.74236300  0.89947320  0.83587917     0.87700
O99         O  0.42727207  0.18164207  0.90346281    -0.74600
O100        O  0.51478768  0.14521358  0.90204127    -0.74600
O101        O  0.47638126  0.17827070  0.87022175    -0.74700
O102        O  0.46543095  0.14840228  0.93504870    -0.74700
O103        O  0.44454509  0.10111412  0.92157101    -0.74600
O104        O  0.45674054  0.13033334  0.85683977    -0.74600
O105        O  0.49415148  0.09717160  0.88928086    -0.74600
O106        O  0.40709613  0.13421513  0.88941552    -0.74700
Ni107      Ni  0.47173871  0.16509201  0.90314752     1.25400
Ni108      Ni  0.44996604  0.11402163  0.88877530     1.25400
C109        C  0.40271911  0.16390088  0.89680305     0.87600
C110        C  0.51868868  0.11509755  0.89558136     0.87500
C111        C  0.46826436  0.15927810  0.85276146     0.87600
C112        C  0.45255027  0.11997114  0.93906466     0.87700
O113        O  0.31746960  0.36674266  0.40667301    -0.74600
O114        O  0.35769060  0.45279819  0.40286618    -0.74600
O115        O  0.32162222  0.41476022  0.37297520    -0.74700
O116        O  0.35306989  0.40488310  0.43696158    -0.74700
O117        O  0.39943076  0.38174398  0.42333264    -0.74600
O118        O  0.36768208  0.39179174  0.35888393    -0.74600
O119        O  0.40393924  0.42921306  0.38922481    -0.74600
O120        O  0.36375314  0.34409897  0.39262829    -0.74700
Ni121      Ni  0.33584062  0.41065765  0.40539005     1.25400
Ni122      Ni  0.38538129  0.38594203  0.39054581     1.25400
C123        C  0.33397701  0.34119390  0.40006213     0.87600
C124        C  0.38748435  0.45490853  0.39524069     0.87500
C125        C  0.33908917  0.40463857  0.35533546     0.87600
C126        C  0.38108442  0.39118696  0.44080766     0.87700
O127        O  0.65220733  0.68661432  0.38818795    -0.74600
O128        O  0.56469645  0.65016743  0.38439549    -0.74600
O129        O  0.61326238  0.64982537  0.41780784    -0.74700
O130        O  0.60338745  0.68705025  0.35486638    -0.74700
O131        O  0.62398062  0.64107181  0.33887991    -0.74600
O132        O  0.63467755  0.60402210  0.40174068    -0.74600
O133        O  0.58575897  0.60426603  0.36833915    -0.74600
O134        O  0.67247735  0.64060444  0.37197822    -0.74700
Ni135      Ni  0.60763020  0.67008130  0.38689688     1.25400
Ni136      Ni  0.62987099  0.62085391  0.36968907     1.25400
C137        C  0.67686574  0.66960323  0.38053851     0.87600
C138        C  0.56091417  0.62108277  0.37568243     0.87500
C139        C  0.62585399  0.62090874  0.42011154     0.87600
C140        C  0.61237757  0.67036790  0.33641149     0.87700
O141        O  0.93224002  0.68207373  0.11872594    -0.74600
O142        O  0.01618976  0.63851943  0.12377519    -0.74600
O143        O  0.96930934  0.64395546  0.08929335    -0.74700
O144        O  0.97932021  0.67689594  0.15316824    -0.74700
O145        O  0.95291390  0.63261582  0.16735769    -0.74600
O146        O  0.94537440  0.59845337  0.10359292    -0.74600
O147        O  0.99090469  0.59424926  0.13880579    -0.74600
O148        O  0.90755259  0.63657434  0.13214158    -0.74700
Ni149      Ni  0.97519733  0.66199602  0.12072671     1.25400
Ni150      Ni  0.94837169  0.61387573  0.13598975     1.25400
C151        C  0.90591161  0.66632974  0.12441654     0.87600
C152        C  0.01726400  0.60899382  0.13211910     0.87500
C153        C  0.95563079  0.61580519  0.08587170     0.87600
C154        C  0.96728409  0.66041454  0.17071796     0.87700
O155        O  0.27344691  0.36924410  0.13513019    -0.74600
O156        O  0.23526069  0.45634733  0.13790302    -0.74600
O157        O  0.27046430  0.41798320  0.16866397    -0.74700
O158        O  0.23858277  0.40757961  0.10452535    -0.74700
O159        O  0.19156034  0.38688426  0.11883662    -0.74600
O160        O  0.22395115  0.39573966  0.18265356    -0.74600
O161        O  0.18914024  0.43418869  0.15278524    -0.74600
O162        O  0.22623832  0.34835724  0.14894236    -0.74700
Ni163      Ni  0.25619319  0.41363145  0.13604546     1.25400
Ni164      Ni  0.20610331  0.39059476  0.15127446     1.25400
C165        C  0.25584186  0.34439836  0.14149096     0.87600
C166        C  0.20577344  0.45933622  0.14601868     0.87500
C167        C  0.25246932  0.40840548  0.18624564     0.87600
C168        C  0.20992458  0.39511480  0.10112028     0.87700
O169        O  0.32261468  0.08586027  0.14203895    -0.74600
O170        O  0.36359434  0.00001690  0.14454027    -0.74600
O171        O  0.32512669  0.03615186  0.17484744    -0.74700
O172        O  0.36021967  0.04965194  0.11198549    -0.74700
O173        O  0.40559157  0.07178646  0.12771673    -0.74600
O174        O  0.36997051  0.05894078  0.19085839    -0.74600
O175        O  0.40822923  0.02301824  0.16084754    -0.74600
O176        O  0.36815611  0.10773648  0.15791452    -0.74700
Ni177      Ni  0.34123345  0.04203099  0.14283781     1.25400
Ni178      Ni  0.38957129  0.06607639  0.15991803     1.25400
C179        C  0.33903217  0.11099570  0.14941210     0.87600
C180        C  0.39302997  0.99760516  0.15289460     0.87500
C181        C  0.34144641  0.04563030  0.19330496     0.87600
C182        C  0.38846556  0.06338465  0.10935283     0.87700
O183        O  0.65467822  0.75782965  0.12213939    -0.74600
O184        O  0.57169165  0.80329522  0.12727769    -0.74600
O185        O  0.61852300  0.79692244  0.09279693    -0.74700
O186        O  0.60763346  0.76393008  0.15655207    -0.74700
O187        O  0.63390536  0.80806131  0.17103573    -0.74600
O188        O  0.64476422  0.84111985  0.10688848    -0.74600
O189        O  0.59829872  0.84759001  0.14125974    -0.74600
O190        O  0.68036311  0.80225490  0.13658145    -0.74700
Ni191      Ni  0.61218579  0.77889575  0.12419142     1.25400
Ni192      Ni  0.64019405  0.82633101  0.13949254     1.25400
C193        C  0.68125858  0.77274362  0.12838035     0.87600
C194        C  0.57163047  0.83320699  0.13481941     0.87500
C195        C  0.63364161  0.82425446  0.08915357     0.87600
C196        C  0.61898953  0.78046372  0.17429810     0.87700
O197        O  0.93207570  0.74713800  0.38424073    -0.74600
O198        O  0.01938344  0.78472662  0.38461651    -0.74600
O199        O  0.96813341  0.78273792  0.41566211    -0.74700
O200        O  0.98318570  0.74809851  0.35289924    -0.74700
O201        O  0.96209966  0.79389362  0.33677708    -0.74600
O202        O  0.94949610  0.82987376  0.39982243    -0.74600
O203        O  0.99927661  0.83033446  0.36736957    -0.74600
O204        O  0.91234100  0.79409823  0.36898849    -0.74700
Ni205      Ni  0.97651962  0.76400201  0.38485850     1.25400
Ni206      Ni  0.95518258  0.81369895  0.36763762     1.25400
C207        C  0.90769299  0.76469118  0.37675135     0.87600
C208        C  0.02341693  0.81408596  0.37638776     0.87500
C209        C  0.95615197  0.81183768  0.41814741     0.87600
C210        C  0.97435089  0.76479340  0.33444954     0.87700
O211        O  0.25042701  0.08715927  0.40649297    -0.74600
O212        O  0.21022054  0.00091278  0.40409229    -0.74600
O213        O  0.24710415  0.03799353  0.37365957    -0.74700
O214        O  0.21391567  0.05021750  0.43720172    -0.74700
O215        O  0.16814876  0.07299049  0.42243281    -0.74600
O216        O  0.20119906  0.06011401  0.35862485    -0.74600
O217        O  0.16423610  0.02388047  0.38966467    -0.74600
O218        O  0.20451525  0.10918539  0.39124743    -0.74700
Ni219      Ni  0.23202656  0.04321878  0.40591796     1.25400
Ni220      Ni  0.18287757  0.06726275  0.38997651     1.25400
C221        C  0.23418136  0.11234979  0.39884098     0.87600
C222        C  0.18042240  0.99831273  0.39648985     0.87500
C223        C  0.22995301  0.04745453  0.35558887     0.87600
C224        C  0.18573645  0.06399221  0.44041709     0.87700
C225        C  0.05557714  0.83093448  0.37856913    -0.20000
C226        C  0.07067734  0.83452373  0.40118056     0.36200
C227        C  0.09622890  0.85759520  0.40418206    -0.26000
C228        C  0.10699185  0.87705243  0.38487713     0.02600
C229        C  0.09370859  0.87168320  0.36180656     0.27400
C230        C  0.06793850  0.84872682  0.35889682    -0.25100
N231        N  0.05828859  0.81680025  0.42152975    -0.82500
H232        H  0.10620564  0.86188127  0.42195917     0.13300
C233        C  0.12705523  0.90688780  0.38980316     0.02600
N234        N  0.10531203  0.89073677  0.34171951    -0.81100
H235        H  0.05625773  0.84597272  0.34150999     0.18100
C236        C  0.16091340  0.90748165  0.38447372    -0.25900
C237        C  0.17956776  0.93663706  0.38758941     0.36100
C238        C  0.16363838  0.96576265  0.39565087    -0.19900
C239        C  0.12989784  0.96467697  0.40141049    -0.25200
C240        C  0.11150574  0.93557895  0.39866019     0.27500
H241        H  0.17262263  0.88531214  0.37759701     0.13200
N242        N  0.21405954  0.93712526  0.38149317    -0.82500
H243        H  0.11767310  0.98687868  0.40776611     0.18100
N244        N  0.07686724  0.93512505  0.40443176    -0.81100
H245        H  0.22139429  0.91423294  0.37456713     0.33700
H246        H  0.22732692  0.94031779  0.39741541     0.38200
H247        H  0.06926818  0.95810610  0.41104418     0.33700
H248        H  0.06380438  0.93126320  0.38849092     0.30400
H249        H  0.09321929  0.88355170  0.32598516     0.33700
H250        H  0.09891030  0.91545156  0.34472167     0.30400
H251        H  0.07779620  0.80321371  0.42892372     0.38300
H252        H  0.05043995  0.83402600  0.43431619     0.33700
C253        C  0.24433141  0.04416128  0.33111194    -0.20000
C254        C  0.23150195  0.06137297  0.31099368     0.36200
C255        C  0.24814593  0.05948624  0.28889069    -0.26000
C256        C  0.27674672  0.04019425  0.28615669     0.02600
C257        C  0.28906793  0.02232943  0.30595532     0.27400
C258        C  0.27293105  0.02469871  0.32818719    -0.25100
N259        N  0.20223341  0.08137940  0.31305002    -0.82500
H260        H  0.23888988  0.07338965  0.27366871     0.13300
C261        C  0.29376234  0.03947021  0.26251925     0.02600
N262        N  0.31791449  0.00182026  0.30339513    -0.81100
H263        H  0.28288854  0.01118035  0.34334886     0.18100
C264        C  0.32719948  0.04831973  0.26108204    -0.25900
C265        C  0.34388848  0.04908854  0.23895378     0.36100
C266        C  0.32635169  0.04196204  0.21756342    -0.19900
C267        C  0.29300304  0.03236299  0.21922616    -0.25200
C268        C  0.27668277  0.03073379  0.24142650     0.27500
H269        H  0.34029575  0.05493128  0.27734354     0.13200
N270        N  0.37845081  0.05716596  0.23827170    -0.82500
H271        H  0.27931991  0.02641990  0.20309559     0.18100
N272        N  0.24277369  0.02031244  0.24265090    -0.81100
H273        H  0.38725725  0.06250826  0.25547873     0.33700
H274        H  0.39113130  0.03602619  0.23257397     0.38200
H275        H  0.23369431  0.01490873  0.22553171     0.33700
H276        H  0.24207793  0.99824458  0.25242655     0.30400
H277        H  0.32396059  0.99053895  0.31970889     0.33700
H278        H  0.31204434  0.98280587  0.29143371     0.30400
H279        H  0.18228650  0.06533754  0.31548680     0.38300
H280        H  0.19758247  0.09403200  0.29702630     0.33700
C281        C  0.54066998  0.85206341  0.13591663    -0.20000
C282        C  0.53941834  0.88452361  0.12672273     0.36200
C283        C  0.51101278  0.90362257  0.13038650    -0.26000
C284        C  0.48401334  0.89085220  0.14301183     0.02600
C285        C  0.48467997  0.85808069  0.15154010     0.27400
C286        C  0.51306347  0.83868537  0.14762329    -0.25100
N287        N  0.56716411  0.89797718  0.11390216    -0.82500
H288        H  0.51012190  0.92887857  0.12387130     0.13300
C289        C  0.45653501  0.91347943  0.14847915     0.02600
N290        N  0.45689564  0.84498777  0.16445422    -0.81100
H291        H  0.51426100  0.81370817  0.15463894     0.18100
C292        C  0.42997891  0.91604952  0.13247166    -0.25900
C293        C  0.40696665  0.94202694  0.13449903     0.36100
C294        C  0.41104415  0.96575931  0.15289319    -0.19900
C295        C  0.43649502  0.96157325  0.16980208    -0.25200
C296        C  0.45942674  0.93581389  0.16766679     0.27500
H297        H  0.42825574  0.89876956  0.11766751     0.13200
N298        N  0.38112735  0.94563149  0.11699255    -0.82500
H299        H  0.43953286  0.97950153  0.18408127     0.18100
N300        N  0.48685836  0.93337127  0.18399073    -0.81100
H301        H  0.38295613  0.92721774  0.10388900     0.33700
H302        H  0.35867887  0.94167182  0.12579646     0.38200
H303        H  0.48590625  0.95229772  0.19675166     0.33700
H304        H  0.48447772  0.91113268  0.19339694     0.30400
H305        H  0.46135525  0.82044415  0.16942931     0.33700
H306        H  0.45452330  0.85842953  0.18038182     0.30400
H307        H  0.57024721  0.88403162  0.09825986     0.38300
H308        H  0.56228322  0.92224472  0.10844014     0.33700
C309        C  0.32498848  0.14457080  0.14770487    -0.20000
C310        C  0.33359429  0.16909959  0.16464430     0.36200
C311        C  0.32242407  0.20153118  0.16132350    -0.26000
C312        C  0.30258916  0.20986739  0.14168368     0.02600
C313        C  0.29345026  0.18552113  0.12492072     0.27400
C314        C  0.30477837  0.15291469  0.12810159    -0.25100
N315        N  0.35331440  0.16092423  0.18530272    -0.82500
H316        H  0.32879363  0.22044191  0.17430103     0.13300
C317        C  0.28964255  0.24384122  0.14034281     0.02600
N318        N  0.27281235  0.19405522  0.10484835    -0.81100
H319        H  0.29839729  0.13415316  0.11502894     0.18100
C320        C  0.30312081  0.26642001  0.12397154    -0.25900
C321        C  0.29325012  0.29983343  0.12412253     0.36100
C322        C  0.26913989  0.31034831  0.14085728    -0.19900
C323        C  0.25560909  0.28730843  0.15696976    -0.25200
C324        C  0.26557424  0.25422546  0.15685377     0.27500
H325        H  0.32182651  0.25805669  0.11144520     0.13200
N326        N  0.30700023  0.32265989  0.10706543    -0.82500
H327        H  0.23718027  0.29516689  0.16987792     0.18100
N328        N  0.25163404  0.23104593  0.17360246    -0.81100
H329        H  0.32259567  0.31030662  0.09507878     0.33700
H330        H  0.32200357  0.33910347  0.11655483     0.38200
H331        H  0.23443809  0.24271767  0.18476249     0.33700
H332        H  0.23860976  0.21338214  0.16371610     0.30400
H333        H  0.26859037  0.17330751  0.09409303     0.33700
H334        H  0.24982659  0.20131880  0.11161322     0.30400
H335        H  0.33961896  0.14456955  0.19588579     0.38300
H336        H  0.35760749  0.18189362  0.19581692     0.33700
C337        C  0.87290741  0.68224028  0.12255016    -0.20000
C338        C  0.86826872  0.71451067  0.11318491     0.36200
C339        C  0.83651185  0.72861159  0.11346402    -0.26000
C340        C  0.80941244  0.71096591  0.12235768     0.02600
C341        C  0.81366279  0.67864713  0.13104596     0.27400
C342        C  0.84527720  0.66458863  0.13100843    -0.25100
N343        N  0.89554538  0.73293783  0.10352781    -0.82500
H344        H  0.83276929  0.75348950  0.10672595     0.13300
C345        C  0.77681233  0.72710295  0.12352973     0.02600
N346        N  0.78590008  0.66051052  0.14028909    -0.81100
H347        H  0.84828976  0.63982841  0.13810827     0.18100
C348        C  0.75122400  0.71591824  0.10869567    -0.25900
C349        C  0.71966151  0.73035450  0.10978353     0.36100
C350        C  0.71371686  0.75615447  0.12636310    -0.19900
C351        C  0.73959034  0.76715988  0.14117323    -0.25200
C352        C  0.77102849  0.75277356  0.13999792     0.27500
H353        H  0.75606457  0.69606365  0.09611327     0.13200
N354        N  0.69399521  0.71931171  0.09386822    -0.82500
H355        H  0.73518663  0.78680835  0.15399985     0.18100
N356        N  0.79705399  0.76380420  0.15562574    -0.81100
H357        H  0.70242443  0.69987391  0.08310604     0.33700
H358        H  0.68842170  0.73887699  0.08226133     0.38200
H359        H  0.78878761  0.78306612  0.16661561     0.33700
H360        H  0.80313390  0.74415078  0.16701598     0.30400
H361        H  0.79315978  0.63688981  0.14585308     0.33700
H362        H  0.77747219  0.67285289  0.15560077     0.30400
H363        H  0.90325286  0.72087942  0.08789990     0.38300
H364        H  0.88794443  0.75658549  0.09826288     0.33700
C365        C  0.97687935  0.74981275  0.31018170    -0.20000
C366        C  0.99698666  0.72181457  0.30549343     0.36200
C367        C  0.99605472  0.70699037  0.28268525    -0.26000
C368        C  0.97577080  0.71965588  0.26449621     0.02600
C369        C  0.95645874  0.74801197  0.26885508     0.27400
C370        C  0.95716674  0.76276702  0.29162593    -0.25100
N371        N  0.01821787  0.70846601  0.32379793    -0.82500
H372        H  0.01097605  0.68526877  0.27908778     0.13300
C373        C  0.97456303  0.70289965  0.24092753     0.02600
N374        N  0.93604625  0.76153712  0.25012391    -0.81100
H375        H  0.94163920  0.78411490  0.29499677     0.18100
C376        C  0.94471228  0.68884567  0.23329290    -0.25900
C377        C  0.94187967  0.67449776  0.21046101     0.36100
C378        C  0.96960352  0.67403362  0.19513871    -0.19900
C379        C  0.99958720  0.68771417  0.20288871    -0.25200
C380        C  0.00240039  0.70204948  0.22575261     0.27500
H381        H  0.92343045  0.68963047  0.24508048     0.13200
N382        N  0.91076710  0.66133378  0.20249838    -0.82500
H383        H  0.02080546  0.68724811  0.19103159     0.18100
N384        N  0.03317771  0.71614997  0.23351156    -0.81100
H385        H  0.89291198  0.66359184  0.21595869     0.33700
H386        H  0.90264683  0.67584300  0.18810613     0.38200
H387        H  0.05126907  0.71328143  0.22028011     0.33700
H388        H  0.02952772  0.74158643  0.23562575     0.30400
H389        H  0.92313505  0.78228647  0.25627271     0.33700
H390        H  0.95167805  0.76975674  0.23643616     0.30400
H391        H  0.03622110  0.72624306  0.32753889     0.38300
H392        H  0.03077120  0.68757278  0.31750873     0.33700
C393        C  0.04928385  0.59160051  0.13434220    -0.20000
C394        C  0.05075393  0.55671749  0.13616938     0.36200
C395        C  0.08126216  0.54136916  0.13997731    -0.26000
C396        C  0.11037185  0.55984017  0.14162208     0.02600
C397        C  0.10937740  0.59438117  0.13896834     0.27400
C398        C  0.07873081  0.61003019  0.13531189    -0.25100
N399        N  0.02143842  0.53688844  0.13391577    -0.82500
H400        H  0.08248914  0.51466000  0.14151262     0.13300
C401        C  0.14139393  0.54164724  0.14580856     0.02600
N402        N  0.13932683  0.61330490  0.14032062    -0.81100
H403        H  0.07778168  0.63672398  0.13378082     0.18100
C404        C  0.16422960  0.53845283  0.12702304    -0.25900
C405        C  0.18825584  0.51328857  0.12752003     0.36100
C406        C  0.18930849  0.49165009  0.14736789    -0.19900
C407        C  0.16891952  0.49752207  0.16726400    -0.25200
C408        C  0.14483652  0.52230263  0.16665191     0.27500
H409        H  0.16136106  0.55355892  0.11108459     0.13200
N410        N  0.20960061  0.50805096  0.10725387    -0.82500
H411        H  0.17019288  0.48110726  0.18263217     0.18100
N412        N  0.12220153  0.52639720  0.18632147    -0.81100
H413        H  0.20575660  0.52636930  0.09429120     0.33700
H414        H  0.20293730  0.48561200  0.09930522     0.38200
H415        H  0.12765432  0.50972689  0.20012565     0.33700
H416        H  0.12578093  0.55010750  0.19331338     0.30400
H417        H  0.13431877  0.63847274  0.13795224     0.33700
H418        H  0.14877714  0.61063313  0.15768108     0.30400
H419        H  0.01282681  0.53953771  0.11632873     0.38300
H420        H  0.02688516  0.51179455  0.13621688     0.33700
C421        C  0.71082720  0.68367896  0.38126937    -0.20000
C422        C  0.73906706  0.66407591  0.37639677     0.36200
C423        C  0.77051578  0.67841626  0.37667475    -0.26000
C424        C  0.77476061  0.71201621  0.38180094     0.02600
C425        C  0.74684959  0.73182042  0.38675038     0.27400
C426        C  0.71518555  0.71746339  0.38644041    -0.25100
N427        N  0.73617972  0.62951075  0.37119002    -0.82500
H428        H  0.79184907  0.66317354  0.37260016     0.13300
C429        C  0.80862397  0.72602260  0.38121594     0.02600
N430        N  0.75080438  0.76636320  0.39210013    -0.81100
H431        H  0.69384101  0.73284929  0.39010078     0.18100
C432        C  0.81587688  0.75137370  0.36491501    -0.25900
C433        C  0.84805882  0.76400194  0.36275973     0.36100
C434        C  0.87359562  0.75116030  0.37748930    -0.19900
C435        C  0.86621618  0.72562318  0.39373568    -0.25200
C436        C  0.83398615  0.71306826  0.39584407     0.27500
H437        H  0.79642703  0.76081098  0.35341122     0.13200
N438        N  0.85489346  0.78933872  0.34534068    -0.82500
H439        H  0.88552925  0.71581171  0.40518553     0.18100
N440        N  0.82679291  0.68738264  0.41290583    -0.81100
H441        H  0.83332709  0.79634036  0.33631915     0.33700
H442        H  0.87064609  0.77913096  0.33243531     0.38200
H443        H  0.84814294  0.68046157  0.42222150     0.33700
H444        H  0.81046835  0.69717957  0.42559770     0.30400
H445        H  0.72785707  0.77750400  0.39515925     0.33700
H446        H  0.76408239  0.76813186  0.40814362     0.30400
H447        H  0.74647849  0.62520178  0.35426654     0.38300
H448        H  0.75005465  0.61639812  0.38386313     0.33700
C449        C  0.61015014  0.68574931  0.31210635    -0.20000
C450        C  0.62393278  0.67061472  0.29140183     0.36200
C451        C  0.62417315  0.68796037  0.26953072    -0.26000
C452        C  0.61027698  0.71954250  0.26765251     0.02600
C453        C  0.59531297  0.73418861  0.28777505     0.27400
C454        C  0.59545584  0.71722969  0.30980412    -0.25100
N455        N  0.63805945  0.63799780  0.29254755    -0.82500
H456        H  0.63524374  0.67680928  0.25377384     0.13300
C457        C  0.61190971  0.73703851  0.24440254     0.02600
N458        N  0.58021049  0.76627979  0.28574013    -0.81100
H459        H  0.58442328  0.72898530  0.32532228     0.18100
C460        C  0.58497264  0.73535135  0.22869088    -0.25900
C461        C  0.58637633  0.75018786  0.20589667     0.36100
C462        C  0.61538136  0.76696089  0.19880374    -0.19900
C463        C  0.64195366  0.76941977  0.21489235    -0.25200
C464        C  0.64055950  0.75440556  0.23762623     0.27500
H465        H  0.56298587  0.72208701  0.23416447     0.13200
N466        N  0.55848155  0.74839855  0.18996895    -0.82500
H467        H  0.66422855  0.78218809  0.20941312     0.18100
N468        N  0.66831793  0.75602891  0.25367892    -0.81100
H469        H  0.53921441  0.73510327  0.19788596     0.33700
H470        H  0.54974339  0.77249423  0.18738235     0.38200
H471        H  0.68766839  0.76930577  0.24585536     0.33700
H472        H  0.66092965  0.76936885  0.26882690     0.30400
H473        H  0.56993513  0.77347870  0.30214248     0.33700
H474        H  0.59885818  0.78330698  0.28183669     0.30400
H475        H  0.61867635  0.62140799  0.29543781     0.38300
H476        H  0.64857343  0.63143956  0.27608043     0.33700
C477        C  0.31884322  0.30769433  0.40043212    -0.20000
C478        C  0.29328715  0.29887247  0.41654939     0.36200
C479        C  0.28098931  0.26630108  0.41640467    -0.26000
C480        C  0.29325042  0.24266598  0.40031072     0.02600
C481        C  0.31852547  0.25132116  0.38419805     0.27400
C482        C  0.33114163  0.28364946  0.38447423    -0.25100
N483        N  0.28046644  0.32253924  0.43340039    -0.82500
H484        H  0.26145699  0.25934351  0.42869862     0.13300
C485        C  0.27873605  0.20909816  0.40000455     0.02600
N486        N  0.33109109  0.22724859  0.36753586    -0.81100
H487        H  0.35058391  0.29015327  0.37198072     0.18100
C488        C  0.25485853  0.20153661  0.38270466    -0.25900
C489        C  0.24032991  0.17002108  0.38173687     0.36100
C490        C  0.24975274  0.14560035  0.39867023    -0.19900
C491        C  0.27417173  0.15318951  0.41574313    -0.25200
C492        C  0.28875101  0.18475281  0.41656818     0.27500
H493        H  0.24764575  0.22034812  0.36985520     0.13200
N494        N  0.21644018  0.16266388  0.36339757    -0.82500
H495        H  0.28157489  0.13459770  0.42869117     0.18100
N496        N  0.31349645  0.19232292  0.43422371    -0.81100
H497        H  0.21206759  0.18340078  0.35262492     0.33700
H498        H  0.22670346  0.14460057  0.35221672     0.38200
H499        H  0.31789712  0.17183086  0.44523055     0.33700
H500        H  0.33557119  0.19705725  0.42512046     0.30400
H501        H  0.34943161  0.23764040  0.35670176     0.33700
H502        H  0.34247430  0.20849373  0.37749081     0.30400
H503        H  0.26673488  0.33989269  0.42368229     0.38300
H504        H  0.26380263  0.31124164  0.44515026     0.33700
C505        C  0.32597448  0.40757943  0.33056272    -0.20000
C506        C  0.29234438  0.41528255  0.32596227     0.36200
C507        C  0.28130709  0.41758134  0.30218855    -0.26000
C508        C  0.30262963  0.41133800  0.28297488     0.02600
C509        C  0.33598842  0.40354747  0.28735277     0.27400
C510        C  0.34741986  0.40207468  0.31110071    -0.25100
N511        N  0.26923990  0.42000781  0.34527366    -0.82500
H512        H  0.25564348  0.42344656  0.29855679     0.13300
C513        C  0.28911343  0.41132852  0.25839467     0.02600
N514        N  0.35790314  0.39658114  0.26767943    -0.81100
H515        H  0.37314249  0.39616533  0.31437604     0.18100
C516        C  0.30113030  0.43400911  0.24151556    -0.25900
C517        C  0.28902539  0.43427904  0.21789716     0.36100
C518        C  0.26480925  0.41094199  0.21110245    -0.19900
C519        C  0.25232749  0.38883568  0.22828876    -0.25200
C520        C  0.26432253  0.38869073  0.25183557     0.27500
H521        H  0.31981745  0.45167664  0.24689362     0.13200
N522        N  0.30087885  0.45837065  0.20099654    -0.82500
H523        H  0.23371539  0.37093725  0.22319673     0.18100
N524        N  0.25185204  0.36530543  0.26904202    -0.81100
H525        H  0.31878191  0.47347236  0.20889153     0.33700
H526        H  0.28101083  0.47378087  0.19656719     0.38200
H527        H  0.23346671  0.35055940  0.26138353     0.33700
H528        H  0.27127306  0.34946144  0.27369187     0.30400
H529        H  0.38169737  0.39137661  0.27395689     0.33700
H530        H  0.34945902  0.37509527  0.25925709     0.30400
H531        H  0.26620132  0.39715388  0.35378036     0.38300
H532        H  0.24597206  0.42667869  0.33867872     0.33700
C533        C  0.40386271  0.48713170  0.39337556    -0.20000
C534        C  0.42779998  0.49615791  0.41035573     0.36200
C535        C  0.44767197  0.52386111  0.40621270    -0.26000
C536        C  0.44438485  0.54249156  0.38507619     0.02600
C537        C  0.41957463  0.53414487  0.36833310     0.27400
C538        C  0.39937593  0.50645071  0.37271130    -0.25100
N539        N  0.43274437  0.47643629  0.43142368    -0.82500
H540        H  0.46694557  0.52982654  0.41899822     0.13300
C541        C  0.46977731  0.56788117  0.37982191     0.02600
N542        N  0.41573075  0.55320251  0.34672989    -0.81100
H543        H  0.38116401  0.49902950  0.35951833     0.18100
C544        C  0.49066010  0.56328829  0.36001767    -0.25900
C545        C  0.51949834  0.58218115  0.35731744     0.36100
C546        C  0.52773859  0.60582233  0.37498462    -0.19900
C547        C  0.50528728  0.61245573  0.39357848    -0.25200
C548        C  0.47633418  0.59364187  0.39617296     0.27500
H549        H  0.48541729  0.54365718  0.34735384     0.13200
N550        N  0.54090005  0.57684499  0.33708379    -0.82500
H551        H  0.51126376  0.63099494  0.40691549     0.18100
N552        N  0.45419015  0.59959936  0.41586534    -0.81100
H553        H  0.54123757  0.59870731  0.32705241     0.33700
H554        H  0.53135169  0.55849653  0.32584830     0.38200
H555        H  0.46265428  0.61922660  0.42639813     0.33700
H556        H  0.43152727  0.60703503  0.40862577     0.30400
H557        H  0.39657621  0.54365687  0.33623417     0.33700
H558        H  0.40861776  0.57709607  0.35172443     0.30400
H559        H  0.45720109  0.46806181  0.43144100     0.38300
H560        H  0.42946645  0.49162984  0.44641312     0.33700
C561        C  0.44594670  0.10946348  0.96425497    -0.20000
C562        C  0.43488614  0.07717412  0.97019082     0.36200
C563        C  0.42744879  0.06950487  0.99418590    -0.26000
C564        C  0.43031878  0.09325433  0.01232253     0.02600
C565        C  0.44182079  0.12513832  0.00667332     0.27400
C566        C  0.44977767  0.13282421  0.98278592    -0.25100
N567        N  0.43109752  0.05219857  0.95204400    -0.82500
H568        H  0.41869613  0.04498491  0.99876835     0.13300
C569        C  0.41986626  0.08476005  0.03702498     0.02600
N570        N  0.44469487  0.14977079  0.02515676    -0.81100
H571        H  0.45818335  0.15757679  0.97860023     0.18100
C572        C  0.44318009  0.08474685  0.05561077    -0.25900
C573        C  0.43390559  0.07780477  0.07941711     0.36100
C574        C  0.40046851  0.07035164  0.08462998    -0.19900
C575        C  0.37737436  0.06988082  0.06572692    -0.25200
C576        C  0.38666183  0.07721364  0.04207494     0.27500
H577        H  0.46871119  0.09043603  0.05149358     0.13200
N578        N  0.45847579  0.07782474  0.09804784    -0.82500
H579        H  0.35168331  0.06443186  0.06943103     0.18100
N580        N  0.36244061  0.07747432  0.02318013    -0.81100
H581        H  0.48209026  0.08071948  0.09074546     0.33700
H582        H  0.45435345  0.09876943  0.10862400     0.38200
H583        H  0.33914148  0.07116374  0.02984106     0.33700
H584        H  0.36057292  0.10173252  0.01680434     0.30400
H585        H  0.45368364  0.17194812  0.01807475     0.33700
H586        H  0.42092909  0.15474692  0.03157793     0.30400
H587        H  0.41025685  0.05842716  0.94190505     0.38300
H588        H  0.42587155  0.02926175  0.95983152     0.33700
C589        C  0.68526030  0.87875773  0.94473632    -0.20000
C590        C  0.66760357  0.90236691  0.95818223     0.36200
C591        C  0.65823483  0.89476437  0.98188090    -0.26000
C592        C  0.66617964  0.86399022  0.99210419     0.02600
C593        C  0.68395213  0.84048375  0.97851205     0.27400
C594        C  0.69318669  0.84810288  0.95489062    -0.25100
N595        N  0.65965555  0.93394663  0.94781273    -0.82500
H596        H  0.64452251  0.91269715  0.99236250     0.13300
C597        C  0.65562333  0.85620202  0.01695586     0.02600
N598        N  0.69284190  0.80913269  0.98889094    -0.81100
H599        H  0.70698460  0.83021941  0.94439786     0.18100
C600        C  0.63480041  0.82910780  0.02078556    -0.25900
C601        C  0.62654324  0.81881879  0.04402398     0.36100
C602        C  0.63921384  0.83602857  0.06413096    -0.19900
C603        C  0.65896155  0.86415391  0.06015327    -0.25200
C604        C  0.66745306  0.87428057  0.03678359     0.27500
H605        H  0.62535707  0.81539208  0.00555304     0.13200
N606        N  0.60557476  0.79060359  0.04693975    -0.82500
H607        H  0.66870851  0.87776977  0.07530671     0.18100
N608        N  0.68874209  0.90225308  0.03312677    -0.81100
H609        H  0.58325128  0.79539902  0.03814264     0.33700
H610        H  0.61685474  0.77041662  0.03852814     0.38200
H611        H  0.69519582  0.91293702  0.04955065     0.33700
H612        H  0.71065454  0.89357058  0.02542472     0.30400
H613        H  0.70571197  0.79461841  0.97648237     0.33700
H614        H  0.70912708  0.81375050  0.00306218     0.30400
H615        H  0.64358419  0.92983282  0.93343312     0.38300
H616        H  0.64685197  0.94862735  0.96015358     0.33700
C617        C  0.55183835  0.10039643  0.89534219    -0.20000
C618        C  0.57439621  0.10782493  0.87689915     0.36200
C619        C  0.60356535  0.08910905  0.87490760    -0.26000
C620        C  0.61024420  0.06316564  0.89096019     0.02600
C621        C  0.58852596  0.05718446  0.91030153     0.27400
C622        C  0.55943887  0.07594576  0.91227057    -0.25100
N623        N  0.56649746  0.13274039  0.85939006    -0.82500
H624        H  0.62026352  0.09346768  0.86004452     0.13300
C625        C  0.63650587  0.03892846  0.88510399     0.02600
N626        N  0.59525366  0.03101478  0.92711576    -0.81100
H627        H  0.54188550  0.07052043  0.92642010     0.18100
C628        C  0.66244293  0.03317868  0.90130803    -0.25900
C629        C  0.68380238  0.00594167  0.89837737     0.36100
C630        C  0.67905949  0.98440567  0.87869586    -0.19900
C631        C  0.65469150  0.99181236  0.86160389    -0.25200
C632        C  0.63318123  0.01862774  0.86468949     0.27500
H633        H  0.66485553  0.04894629  0.91692542     0.13200
N634        N  0.70895444  0.99919132  0.91594666    -0.82500
H635        H  0.65124175  0.97547534  0.84639571     0.18100
N636        N  0.60682074  0.02426015  0.84784094    -0.81100
H637        H  0.70928834  0.01764977  0.92907773     0.33700
H638        H  0.70264148  0.97724530  0.92471960     0.38200
H639        H  0.60799982  0.00727013  0.83372839     0.33700
H640        H  0.58450706  0.01989326  0.85673902     0.30400
H641        H  0.57697178  0.03011335  0.94035404     0.33700
H642        H  0.59402708  0.00859796  0.91781788     0.30400
H643        H  0.56571977  0.15550643  0.86825250     0.38300
H644        H  0.58526418  0.13446876  0.84656080     0.33700
C645        C  0.66587992  0.55947800  0.56454123    -0.20000
C646        C  0.64748659  0.58833196  0.55919177     0.36200
C647        C  0.63766691  0.59448857  0.53537305    -0.26000
C648        C  0.64575093  0.57250221  0.51678237     0.02600
C649        C  0.66241379  0.54279123  0.52234007     0.27400
C650        C  0.67259981  0.53676132  0.54608226    -0.25100
N651        N  0.64010414  0.61203202  0.57766497    -0.82500
H652        H  0.62501024  0.61737922  0.53108568     0.13300
C653        C  0.63947323  0.58251795  0.49144883     0.02600
N654        N  0.66924466  0.51908456  0.50376714    -0.81100
H655        H  0.68614314  0.51430869  0.55016713     0.18100
C656        C  0.66630187  0.58448900  0.47551474    -0.25900
C657        C  0.66226087  0.59662772  0.45204915     0.36100
C658        C  0.63074820  0.60707466  0.44437137    -0.19900
C659        C  0.60383050  0.60495696  0.46014842    -0.25200
C660        C  0.60778282  0.59235106  0.48354436     0.27500
H661        H  0.69072406  0.57747406  0.48167915     0.13200
N662        N  0.69019399  0.59938171  0.43623097    -0.82500
H663        H  0.57962586  0.61286161  0.45408252     0.18100
N664        N  0.57981988  0.58943065  0.49929160    -0.81100
H665        H  0.71161806  0.59066830  0.44462606     0.33700
H666        H  0.69400279  0.62452246  0.43281506     0.38200
H667        H  0.55833062  0.59771470  0.49075809     0.33700
H668        H  0.57640605  0.56427779  0.50285758     0.30400
H669        H  0.68172732  0.49857950  0.51078120     0.33700
H670        H  0.64656663  0.51045602  0.49735403     0.30400
H671        H  0.66247084  0.62230864  0.58333476     0.38300
H672        H  0.62595857  0.63152554  0.57079470     0.33700
C673        C  0.39194799  0.38549828  0.46580204    -0.20000
C674        C  0.36881686  0.37928300  0.48421831     0.36200
C675        C  0.37987679  0.37221995  0.50746503    -0.26000
C676        C  0.41368025  0.37093620  0.51273482     0.02600
C677        C  0.43694042  0.37785787  0.49457936     0.27400
C678        C  0.42583394  0.38494198  0.47121492    -0.25100
N679        N  0.33410619  0.37850118  0.47918769    -0.82500
H680        H  0.36195754  0.36640914  0.52128698     0.13300
C681        C  0.42411517  0.35920162  0.53674059     0.02600
N682        N  0.47167155  0.37730425  0.49994579    -0.81100
H683        H  0.44366573  0.38993628  0.45717800     0.18100
C684        C  0.44161380  0.32941652  0.53841305    -0.25900
C685        C  0.44947224  0.31547599  0.56077217     0.36100
C686        C  0.43899459  0.33152374  0.58210588    -0.19900
C687        C  0.42219910  0.36196031  0.58026490    -0.25200
C688        C  0.41474577  0.37597265  0.55780464     0.27500
H689        H  0.44863657  0.31663660  0.52209348     0.13200
N690        N  0.46779458  0.28499580  0.56170971    -0.82500
H691        H  0.41430557  0.37468028  0.59638016     0.18100
N692        N  0.39740006  0.40695986  0.55624137    -0.81100
H693        H  0.47236822  0.27597836  0.54444014     0.33700
H694        H  0.49087610  0.29026986  0.56920624     0.38200
H695        H  0.39212605  0.41608027  0.57337413     0.33700
H696        H  0.41325933  0.42402375  0.54814334     0.30400
H697        H  0.48550148  0.38279437  0.48461154     0.33700
H698        H  0.47627855  0.39620157  0.51229441     0.30400
H699        H  0.32521837  0.35501336  0.48362011     0.38300
H700        H  0.32242250  0.39575020  0.49030350     0.33700
C701        C  0.46677081  0.24903480  0.71285654    -0.20000
C702        C  0.46023230  0.26593642  0.73465167     0.36200
C703        C  0.46458598  0.24937405  0.75660911    -0.26000
C704        C  0.47504533  0.21632561  0.75750445     0.02600
C705        C  0.48204728  0.19952519  0.73595850     0.27400
C706        C  0.47785975  0.21599481  0.71393138    -0.25100
N707        N  0.44889203  0.29966016  0.73462990    -0.82500
H708        H  0.45881019  0.26206611  0.77321578     0.13300
C709        C  0.47665245  0.19941923  0.78118538     0.02600
N710        N  0.49336015  0.16580675  0.73654655    -0.81100
H711        H  0.48315978  0.20272513  0.69749637     0.18100
C712        C  0.45722221  0.17127923  0.78519332    -0.25900
C713        C  0.45465062  0.15704134  0.80815755     0.36100
C714        C  0.47197092  0.17139303  0.82765517    -0.19900
C715        C  0.49257770  0.19871375  0.82326009    -0.25200
C716        C  0.49526856  0.21268347  0.80024993     0.27500
H717        H  0.44285249  0.16120683  0.77051445     0.13200
N718        N  0.43368557  0.12879704  0.81172789    -0.82500
H719        H  0.50653846  0.20944749  0.83789188     0.18100
N720        N  0.51659181  0.24051831  0.79616293    -0.81100
H721        H  0.42382831  0.12070524  0.79541202     0.33700
H722        H  0.41364946  0.13644162  0.82219157     0.38200
H723        H  0.52850285  0.24741059  0.81203774     0.33700
H724        H  0.53505080  0.23295559  0.78423316     0.30400
H725        H  0.49723344  0.15691121  0.71915626     0.33700
H726        H  0.51633631  0.16552189  0.74512314     0.30400
H727        H  0.42468933  0.29968838  0.72806779     0.38300
H728        H  0.44752671  0.30889440  0.75212776     0.33700
C729        C  0.54544974  0.32653063  0.64809698    -0.20000
C730        C  0.55645262  0.34430757  0.66830301     0.36200
C731        C  0.58341709  0.36565120  0.66599607    -0.26000
C732        C  0.59888379  0.37020403  0.64374135     0.02600
C733        C  0.59030890  0.34970699  0.62422022     0.27400
C734        C  0.56371679  0.32756554  0.62671299    -0.25100
N735        N  0.53888559  0.34203789  0.69067590    -0.82500
H736        H  0.59068173  0.38091056  0.68108330     0.13300
C737        C  0.61921848  0.40024618  0.64040548     0.02600
N738        N  0.60711148  0.35296942  0.60162007    -0.81100
H739        H  0.55533477  0.31352740  0.61131683     0.18100
C740        C  0.65241725  0.39792546  0.63346320    -0.25900
C741        C  0.67188079  0.42654493  0.63060508     0.36100
C742        C  0.65779525  0.45801952  0.63536773    -0.19900
C743        C  0.62434112  0.45990876  0.64201805    -0.25200
C744        C  0.60489803  0.43158740  0.64425540     0.27500
H745        H  0.66311595  0.37373356  0.63030897     0.13200
N746        N  0.70575407  0.42352946  0.62318670    -0.82500
H747        H  0.61293109  0.48373139  0.64529319     0.18100
N748        N  0.57045245  0.43450085  0.65034156    -0.81100
H749        H  0.71254085  0.39863744  0.62181575     0.33700
H750        H  0.70746392  0.43325032  0.60584191     0.38200
H751        H  0.56380715  0.45925889  0.65284967     0.33700
H752        H  0.55675808  0.42594707  0.63569970     0.30400
H753        H  0.59790621  0.33593059  0.58920732     0.33700
H754        H  0.60181845  0.37648026  0.59479360     0.30400
H755        H  0.54110406  0.31769573  0.69681735     0.38300
H756        H  0.54980636  0.35713592  0.70366400     0.33700
C757        C  0.75587861  0.80094657  0.88020063    -0.20000
C758        C  0.73530551  0.77277598  0.87818173     0.36200
C759        C  0.74967773  0.74119804  0.87744199    -0.26000
C760        C  0.78390402  0.73699287  0.87959924     0.02600
C761        C  0.80437375  0.76487487  0.88242906     0.27400
C762        C  0.79019116  0.79655688  0.88247562    -0.25100
N763        N  0.69995139  0.77613985  0.87719222    -0.82500
H764        H  0.73408683  0.71963964  0.87530951     0.13300
C765        C  0.79796328  0.70317944  0.87892573     0.02600
N766        N  0.83944991  0.76084949  0.88536475    -0.81100
H767        H  0.80612206  0.81792338  0.88418033     0.18100
C768        C  0.82183964  0.69545575  0.86159606    -0.25900
C769        C  0.83635377  0.66393636  0.86063844     0.36100
C770        C  0.82611875  0.63937683  0.87713499    -0.19900
C771        C  0.80161741  0.64700231  0.89410525    -0.25200
C772        C  0.78767718  0.67874679  0.89534197     0.27500
H773        H  0.82924398  0.71422091  0.84879520     0.13200
N774        N  0.86058293  0.65665588  0.84251059    -0.82500
H775        H  0.79377409  0.62828356  0.90679826     0.18100
N776        N  0.76339897  0.68640412  0.91334839    -0.81100
H777        H  0.86264628  0.67633993  0.83042679     0.33700
H778        H  0.88351501  0.65490268  0.85104474     0.38200
H779        H  0.75842213  0.66564343  0.92393232     0.33700
H780        H  0.77356709  0.70421243  0.92475096     0.30400
H781        H  0.85100029  0.78382673  0.88712798     0.33700
H782        H  0.84338290  0.74819038  0.90148503     0.30400
H783        H  0.69217748  0.78550355  0.89375064     0.38300
H784        H  0.68867221  0.75304710  0.87528039     0.33700
C785        C  0.95037969  0.60400818  0.06102678    -0.20000
C786        C  0.94666273  0.57004741  0.05555576     0.36200
C787        C  0.93824496  0.56062891  0.03205726    -0.26000
C788        C  0.93385601  0.58440839  0.01406962     0.02600
C789        C  0.93874266  0.61809115  0.01920976     0.27400
C790        C  0.94711914  0.62756871  0.04262479    -0.25100
N791        N  0.95129814  0.54532701  0.07380733    -0.82500
H792        H  0.93450088  0.53475610  0.02780527     0.13300
C793        C  0.92167879  0.57420197  0.99028870     0.02600
N794        N  0.93393602  0.64256775  0.00079533    -0.81100
H795        H  0.94989397  0.65361730  0.04668789     0.18100
C796        C  0.88761645  0.57463749  0.98611415    -0.25900
C797        C  0.87469789  0.56735027  0.96335244     0.36100
C798        C  0.89661388  0.56014755  0.94422330    -0.19900
C799        C  0.93081151  0.55904576  0.94872868    -0.25200
C800        C  0.94355305  0.56581746  0.97166338     0.27500
H801        H  0.87108247  0.58107320  0.00069078     0.13200
N802        N  0.83958236  0.56857794  0.95951707    -0.82500
H803        H  0.94767958  0.55305914  0.93426726     0.18100
N804        N  0.97850573  0.56426719  0.97614006    -0.81100
H805        H  0.82746411  0.57711309  0.97489132     0.33700
H806        H  0.83151260  0.54428470  0.95700574     0.38200
H807        H  0.99116994  0.55727457  0.96059247     0.33700
H808        H  0.98653157  0.58810167  0.98040366     0.30400
H809        H  0.93780039  0.66632184  0.00763404     0.33700
H810        H  0.95199548  0.63878058  0.98767495     0.30400
H811        H  0.97607885  0.54615582  0.07906166     0.38300
H812        H  0.94727173  0.52166966  0.06683993     0.33700
C813        C  0.82976029  0.53729910  0.80889663    -0.20000
C814        C  0.84028538  0.55815486  0.78992953     0.36200
C815        C  0.82411804  0.55652127  0.76760088    -0.26000
C816        C  0.79834548  0.53411703  0.76368403     0.02600
C817        C  0.78881301  0.51232329  0.78209276     0.27400
C818        C  0.80443016  0.51429493  0.80455393    -0.25100
N819        N  0.86641226  0.58168696  0.79351661    -0.82500
H820        H  0.83144356  0.57294835  0.75318471     0.13300
C821        C  0.78103410  0.53424400  0.74031548     0.02600
N822        N  0.76344558  0.48817984  0.77783665    -0.81100
H823        H  0.79657529  0.49788067  0.81882065     0.18100
C824        C  0.79285746  0.51435540  0.72165248    -0.25900
C825        C  0.77719314  0.51405751  0.69909822     0.36100
C826        C  0.74919331  0.53450655  0.69511170    -0.19900
C827        C  0.73734193  0.55413906  0.71413085    -0.25200
C828        C  0.75301122  0.55425457  0.73663923     0.27500
H829        H  0.81439068  0.49896420  0.72476074     0.13200
N830        N  0.78965801  0.49300459  0.68038115    -0.82500
H831        H  0.71612063  0.57004306  0.71133910     0.18100
N832        N  0.74112751  0.57524303  0.75561013    -0.81100
H833        H  0.81077434  0.48032335  0.68611585     0.33700
H834        H  0.77171021  0.47504654  0.67696845     0.38200
H835        H  0.72066942  0.58894537  0.74986129     0.33700
H836        H  0.73283302  0.56008013  0.76954355     0.30400
H837        H  0.75977999  0.47359332  0.79310203     0.33700
H838        H  0.74128544  0.50080291  0.77480410     0.30400
H839        H  0.88843113  0.56833704  0.79523132     0.38300
H840        H  0.86931152  0.59659927  0.77832727     0.33700
C841        C  0.36884048  0.17781879  0.89803980    -0.20000
C842        C  0.34396536  0.16819139  0.88169157     0.36200
C843        C  0.31221569  0.18201915  0.88364635    -0.26000
C844        C  0.30484057  0.20562013  0.90130388     0.02600
C845        C  0.32948008  0.21496330  0.91785529     0.27400
C846        C  0.36123526  0.20097133  0.91603707    -0.25100
N847        N  0.35117989  0.14508797  0.86279408    -0.82500
H848        H  0.29315792  0.17480981  0.87103674     0.13300
C849        C  0.27160809  0.22131435  0.90136259     0.02600
N850        N  0.32228999  0.23889523  0.93620690    -0.81100
H851        H  0.38014877  0.20814823  0.92876663     0.18100
C852        C  0.25119654  0.21866299  0.92164847    -0.25900
C853        C  0.21924101  0.23255446  0.92183638     0.36100
C854        C  0.20765887  0.24947731  0.90128968    -0.19900
C855        C  0.22833899  0.25248875  0.88120135    -0.25200
C856        C  0.26014339  0.23864402  0.88101520     0.27500
H857        H  0.26016338  0.20548224  0.93729131     0.13200
N858        N  0.19919996  0.23071099  0.94309008    -0.82500
H859        H  0.21958947  0.26576307  0.86552601     0.18100
N860        N  0.28103026  0.24236221  0.86031627    -0.81100
H861        H  0.21232603  0.21951117  0.95707919     0.33700
H862        H  0.17930795  0.21510601  0.93935503     0.38200
H863        H  0.26884937  0.25558374  0.84681350     0.33700
H864        H  0.30139321  0.25658017  0.86543810     0.30400
H865        H  0.34300096  0.24281450  0.94705115     0.33700
H866        H  0.31717708  0.26139328  0.92771385     0.30400
H867        H  0.36828731  0.15628089  0.85133498     0.38300
H868        H  0.33009415  0.14046024  0.85249372     0.33700
C869        C  0.13844966  0.33437115  0.96360072    -0.20000
C870        C  0.12794130  0.31941697  0.98533444     0.36200
C871        C  0.13823900  0.33286870  0.00728674    -0.26000
C872        C  0.15869354  0.36072185  0.00807577     0.02600
C873        C  0.16810906  0.37644215  0.98663637     0.27400
C874        C  0.15796266  0.36311345  0.96464573    -0.25100
N875        N  0.10726935  0.29052814  0.98525632    -0.82500
H876        H  0.13120478  0.32088785  0.02391884     0.13300
C877        C  0.17158535  0.37198707  0.03146454     0.02600
N878        N  0.18817559  0.40573319  0.98733991    -0.81100
H879        H  0.16585493  0.37509041  0.94823595     0.18100
C880        C  0.20583873  0.37237781  0.03515217    -0.25900
C881        C  0.21924362  0.38123628  0.05744234     0.36100
C882        C  0.19769216  0.38933159  0.07653725    -0.19900
C883        C  0.16339701  0.38929932  0.07264767    -0.25200
C884        C  0.15011949  0.38088147  0.05025374     0.27500
H885        H  0.22214734  0.36511116  0.02065106     0.13200
N886        N  0.25443769  0.38041337  0.06096220    -0.82500
H887        H  0.14683757  0.39565617  0.08721836     0.18100
N888        N  0.11496767  0.38102944  0.04653513    -0.81100
H889        H  0.26633485  0.37124090  0.04569058     0.33700
H890        H  0.26239684  0.40485012  0.06284448     0.38200
H891        H  0.10263361  0.38791314  0.06224813     0.33700
H892        H  0.10968263  0.39920328  0.03373602     0.30400
H893        H  0.19312652  0.41421063  0.96998209     0.33700
H894        H  0.17443419  0.42425112  0.99583893     0.30400
H895        H  0.12183073  0.27061253  0.97961863     0.38300
H896        H  0.09953465  0.28472582  0.00265932     0.33700
C897        C  0.03280018  0.34403537  0.89675687    -0.20000
C898        C  0.03257644  0.37822259  0.90191025     0.36200
C899        C  0.00331195  0.39626742  0.89900942    -0.26000
C900        C  0.97434513  0.38092031  0.89111716     0.02600
C901        C  0.97399438  0.34662970  0.88680538     0.27400
C902        C  0.00333998  0.32830930  0.88989297    -0.25100
N903        N  0.06216624  0.39452176  0.90988959    -0.82500
H904        H  0.00320711  0.42268575  0.90233337     0.13300
C905        C  0.94582576  0.40235435  0.88570644     0.02600
N906        N  0.94429264  0.33092545  0.87852816    -0.81100
H907        H  0.00358362  0.30206234  0.88598205     0.18100
C908        C  0.94455288  0.41750929  0.86310974    -0.25900
C909        C  0.92388632  0.44482661  0.85904247     0.36100
C910        C  0.90392481  0.45669052  0.87788860    -0.18300
C911        C  0.90305311  0.43968558  0.89983340    -0.25200
C912        C  0.92431813  0.41279444  0.90406405     0.27500
H913        H  0.96139241  0.40941498  0.84916800     0.13200
N914        N  0.92410852  0.46151906  0.83625218    -0.82500
H915        H  0.88777578  0.44904724  0.91429548     0.18100
N916        N  0.92594667  0.39760043  0.92735858    -0.81100
H917        H  0.94041097  0.44986888  0.82439365     0.33700
H918        H  0.90049286  0.45925759  0.82882991     0.38200
H919        H  0.90914050  0.40879121  0.93907763     0.33700
H920        H  0.91846429  0.37301833  0.92547902     0.30400
H921        H  0.94834428  0.30565048  0.87584669     0.33700
H922        H  0.92668493  0.33290493  0.89216804     0.30400
H923        H  0.06852482  0.38452354  0.92657886     0.38300
H924        H  0.05783655  0.41973658  0.91265555     0.33700
C925        C  0.19691567  0.19268254  0.65206870    -0.20000
C926        C  0.22250128  0.18212543  0.66766636     0.36200
C927        C  0.25358954  0.19726427  0.66632503    -0.26000
C928        C  0.25954193  0.22288915  0.65006359     0.02600
C929        C  0.23398933  0.23436932  0.63509690     0.27400
C930        C  0.20283328  0.21913916  0.63623424    -0.25100
N931        N  0.21689794  0.15624369  0.68489475    -0.82500
H932        H  0.27344854  0.18893354  0.67791604     0.13300
C933        C  0.29316659  0.23663103  0.64859706     0.02600
N934        N  0.24000920  0.26102055  0.61859420    -0.81100
H935        H  0.18334365  0.22751121  0.62435227     0.18100
C936        C  0.31486535  0.22433770  0.63118456    -0.25900
C937        C  0.34786766  0.23473455  0.63043956     0.36100
C938        C  0.35934616  0.25804167  0.64731955    -0.19900
C939        C  0.33724218  0.27069769  0.66452454    -0.25200
C940        C  0.30426758  0.26004223  0.66540426     0.27500
H941        H  0.30623964  0.20617679  0.61833881     0.13200
N942        N  0.36943767  0.22184098  0.61233632    -0.82500
H943        H  0.34583973  0.28853518  0.67760407     0.18100
N944        N  0.28214702  0.27235091  0.68351407    -0.81100
H945        H  0.37016068  0.19610897  0.61413812     0.33700
H946        H  0.35925567  0.22740340  0.59556252     0.38200
H947        H  0.29429437  0.28911620  0.69472542     0.33700
H948        H  0.26341463  0.28558234  0.67483352     0.30400
H949        H  0.21870104  0.26632420  0.60869091     0.33700
H950        H  0.24523692  0.28214715  0.62870380     0.30400
H951        H  0.19956679  0.16501165  0.69727822     0.38300
H952        H  0.23843583  0.15115504  0.69459746     0.33700
C953        C  0.12832999  0.11329617  0.58471952    -0.20000
C954        C  0.13906161  0.08058172  0.57991656     0.36200
C955        C  0.14794688  0.07178015  0.55637176    -0.26000
C956        C  0.14581809  0.09468760  0.53756734     0.02600
C957        C  0.13473514  0.12705746  0.54217016     0.27400
C958        C  0.12598093  0.13598149  0.56562417    -0.25100
N959        N  0.14076427  0.05635515  0.59877343    -0.82500
H960        H  0.15635875  0.04686785  0.55256888     0.13300
C961        C  0.15574751  0.08477808  0.51307687     0.02600
N962        N  0.13295077  0.15087040  0.52302656    -0.81100
H963        H  0.11794726  0.16111439  0.56901762     0.18100
C964        C  0.13193717  0.08400626  0.49484949    -0.25900
C965        C  0.14073693  0.07704244  0.47097998     0.36100
C966        C  0.17423247  0.07034356  0.46533619    -0.19900
C967        C  0.19778385  0.07018813  0.48394509    -0.25200
C968        C  0.18892951  0.07759407  0.50768590     0.27500
H969        H  0.10642096  0.08944380  0.49926220     0.13200
N970        N  0.11566263  0.07641399  0.45270823    -0.82500
H971        H  0.22348119  0.06515836  0.47989820     0.18100
N972        N  0.21356720  0.07850952  0.52627441    -0.81100
H973        H  0.09216938  0.07853521  0.46036338     0.33700
H974        H  0.11874114  0.09755169  0.44214313     0.38200
H975        H  0.23681634  0.07244746  0.51936658     0.33700
H976        H  0.21513348  0.10289212  0.53240514     0.30400
H977        H  0.12412431  0.17355950  0.52936453     0.33700
H978        H  0.15702027  0.15503071  0.51693599     0.30400
H979        H  0.11659875  0.05179100  0.60450318     0.38300
H980        H  0.14990617  0.03388948  0.59225102     0.33700
C981        C  0.09420633  0.18418037  0.71728270    -0.20000
C982        C  0.09309797  0.21883408  0.72066711     0.36200
C983        C  0.09158366  0.23157417  0.74399694    -0.26000
C984        C  0.09321803  0.21073158  0.76405847     0.02600
C985        C  0.09377783  0.17613688  0.76080267     0.27400
C986        C  0.09387104  0.16321381  0.73740721    -0.25100
N987        N  0.09517590  0.24108280  0.70057063    -0.82500
H988        H  0.09074354  0.25812045  0.74661845     0.13300
C989        C  0.09687477  0.22585082  0.78812768     0.02600
N990        N  0.09524580  0.15434471  0.78117960    -0.81100
H991        H  0.09462631  0.13665385  0.73488697     0.18100
C992        C  0.07483772  0.21749670  0.80656917    -0.25900
C993        C  0.07782255  0.23157736  0.82951592     0.36100
C994        C  0.10320636  0.25479611  0.83390835    -0.19900
C995        C  0.12490543  0.26337370  0.81531371    -0.25200
C996        C  0.12237280  0.24879759  0.79262225     0.27500
H997        H  0.05509023  0.20014125  0.80296515     0.13200
N998        N  0.05499460  0.22264718  0.84818374    -0.82500
H999        H  0.14463298  0.28084631  0.81868133     0.18100
N1000       N  0.14597534  0.25676474  0.77421398    -0.81100
H1001       H  0.03826915  0.20487175  0.84206051     0.33700
H1002       H  0.04112729  0.24370763  0.85238343     0.38200
H1003       H  0.16300729  0.27421734  0.78037626     0.33700
H1004       H  0.15936500  0.23526334  0.77039891     0.30400
H1005       H  0.09530910  0.12963580  0.77565715     0.33700
H1006       H  0.11777554  0.15841498  0.78986111     0.30400
H1007       H  0.11866315  0.23826449  0.69301136     0.38300
H1008       H  0.09358379  0.26568189  0.70624036     0.33700
C1009       C  0.81956856  0.79458331  0.62228025    -0.20000
C1010       C  0.78678459  0.78889076  0.61431366     0.36200
C1011       C  0.77444004  0.75641195  0.61401576    -0.26000
C1012       C  0.79390206  0.72975742  0.62165054     0.02600
C1013       C  0.82642639  0.73511926  0.62940920     0.27400
C1014       C  0.83901228  0.76736212  0.62948980    -0.25100
N1015       N  0.76600597  0.81580770  0.60671623    -0.82500
H1016       H  0.74928738  0.75183975  0.60824258     0.13300
C1017       C  0.77924322  0.69649798  0.62286827     0.02600
N1018       N  0.84637392  0.70778583  0.63742365    -0.81100
H1019       H  0.86413303  0.77114646  0.63557235     0.18100
C1020       C  0.78674197  0.67315959  0.60510244    -0.25900
C1021       C  0.77280404  0.64134141  0.60576873     0.36100
C1022       C  0.75126251  0.63293763  0.62475964    -0.19900
C1023       C  0.74426048  0.65640271  0.64265095    -0.25200
C1024       C  0.75822929  0.68803754  0.64197327     0.27500
H1025       H  0.80314102  0.68000314  0.59056126     0.13200
N1026       N  0.77983037  0.61796060  0.58701963    -0.82500
H1027       H  0.72802882  0.64992589  0.65737960     0.18100
N1028       N  0.75124874  0.71166830  0.66058294    -0.81100
H1029       H  0.79630778  0.62804463  0.57456761     0.33700
H1030       H  0.75778345  0.61357728  0.57777591     0.38200
H1031       H  0.73511342  0.70160978  0.67327774     0.33700
H1032       H  0.77338517  0.71649666  0.66958861     0.30400
H1033       H  0.86992981  0.71587129  0.64237201     0.33700
H1034       H  0.83545443  0.69820959  0.65293981     0.30400
H1035       H  0.76034737  0.82982029  0.62193865     0.38300
H1036       H  0.74347646  0.80697892  0.60016527     0.33700
C1037       C  0.89359680  0.87242970  0.55850500    -0.20000
C1038       C  0.87165491  0.86149488  0.54043905     0.36200
C1039       C  0.88417324  0.85317470  0.51773580    -0.26000
C1040       C  0.91793051  0.85595565  0.51260085     0.02600
C1041       C  0.93974798  0.86776973  0.53030504     0.27400
C1042       C  0.92736809  0.87573641  0.55317551    -0.25100
N1043       N  0.83709271  0.85718961  0.54550374    -0.82500
H1044       H  0.86760262  0.84402383  0.50398401     0.13300
C1045       C  0.93001677  0.84454877  0.48894644     0.02600
N1046       N  0.97438567  0.87093669  0.52512487    -0.81100
H1047       H  0.94417527  0.88418802  0.56700640     0.18100
C1048       C  0.94214650  0.86750611  0.47226283    -0.25900
C1049       C  0.95156991  0.85744887  0.44905815     0.36100
C1050       C  0.94868543  0.82381121  0.44260331    -0.19900
C1051       C  0.93756231  0.80081739  0.45965919    -0.25200
C1052       C  0.92813695  0.81084966  0.48273636     0.27500
H1053       H  0.94372414  0.89334689  0.47726463     0.13200
N1054       N  0.96414561  0.88113076  0.43213704    -0.82500
H1055       H  0.93540967  0.77497332  0.45476702     0.18100
N1056       N  0.91624155  0.78706147  0.49985884    -0.81100
H1057       H  0.96460327  0.90477412  0.43971763     0.33700
H1058       H  0.98868812  0.87476872  0.42847525     0.38200
H1059       H  0.91602519  0.76334358  0.49239529     0.33700
H1060       H  0.93302504  0.78641440  0.51411966     0.30400
H1061       H  0.98703844  0.88014914  0.54004684     0.33700
H1062       H  0.98372219  0.84721765  0.52192744     0.30400
H1063       H  0.82669090  0.88071625  0.54741383     0.38300
H1064       H  0.82505959  0.84632053  0.53090158     0.33700
C1065       C  0.82621097  0.89293052  0.69368479    -0.20000
C1066       C  0.84666517  0.89850196  0.71380225     0.36200
C1067       C  0.83251658  0.89976649  0.73685387    -0.26000
C1068       C  0.79846832  0.89487523  0.74034710     0.02600
C1069       C  0.77812761  0.88890467  0.72019999     0.27400
C1070       C  0.79212283  0.88859513  0.69711730    -0.25100
N1071       N  0.88159144  0.90335828  0.71075924    -0.82500
H1072       H  0.84812213  0.90490118  0.75219745     0.13300
C1073       C  0.78447545  0.89628636  0.76512559     0.02600
N1074       N  0.74344633  0.88252782  0.72327692    -0.81100
H1075       H  0.77642264  0.88392896  0.68173544     0.18100
C1076       C  0.75693620  0.91659170  0.76981557    -0.25900
C1077       C  0.74267710  0.91805659  0.79281858     0.36100
C1078       C  0.75696864  0.89982685  0.81167498    -0.19900
C1079       C  0.78485079  0.88015077  0.80726292    -0.25200
C1080       C  0.79833307  0.87757375  0.78408785     0.27500
H1081       H  0.74651114  0.93136850  0.75545787     0.13200
N1082       N  0.71389548  0.93805569  0.79716035    -0.82500
H1083       H  0.79536961  0.86576862  0.82181682     0.18100
N1084       N  0.82548921  0.85543199  0.77963487    -0.81100
H1085       H  0.70630314  0.94979893  0.78136563     0.33700
H1086       H  0.72058768  0.95673396  0.80917539     0.38200
H1087       H  0.83271723  0.84353265  0.79545917     0.33700
H1088       H  0.81708601  0.83699550  0.76799909     0.30400
H1089       H  0.73198713  0.87872933  0.70668929     0.33700
H1090       H  0.74116352  0.86043221  0.73288561     0.30400
H1091       H  0.88485369  0.92527916  0.70108636     0.38300
H1092       H  0.89312602  0.90677302  0.72736395     0.33700
C1093       C  0.90615553  0.97320123  0.62963090    -0.20000
C1094       C  0.89256143  0.00130173  0.64096467     0.36200
C1095       C  0.91227474  0.02972294  0.64385560    -0.26000
C1096       C  0.94503390  0.03011879  0.63565783     0.02600
C1097       C  0.95811165  0.00244392  0.62361844     0.27400
C1098       C  0.93853289  0.97425705  0.62075386    -0.25100
N1099       N  0.85956117  0.00030852  0.65045151    -0.82500
H1100       H  0.90263169  0.05103974  0.65333999     0.13300
C1101       C  0.96722715  0.05759891  0.64206129     0.02600
N1102       N  0.99180722  0.00259042  0.61540400    -0.81100
H1103       H  0.94885307  0.95261215  0.61203821     0.18100
C1104       C  0.98638841  0.05431130  0.66284880    -0.25900
C1105       C  0.01328038  0.07531978  0.66709539     0.36100
C1106       C  0.02115020  0.09992435  0.65004068    -0.19900
C1107       C  0.00012740  0.10501222  0.63029799    -0.25200
C1108       C  0.97328758  0.08378803  0.62601080     0.27500
H1109       H  0.98133073  0.03417536  0.67515570     0.13200
N1110       N  0.03314593  0.07120621  0.68829217    -0.82500
H1111       H  0.00589728  0.12417070  0.61736581     0.18100
N1112       N  0.95287077  0.08802256  0.60511125    -0.81100
H1113       H  0.02413107  0.05184632  0.69886088     0.33700
H1114       H  0.03077657  0.09276100  0.69851214     0.38200
H1115       H  0.96050630  0.10864832  0.59525428     0.33700
H1116       H  0.95631027  0.06748154  0.59401151     0.30400
H1117       H  0.99790343  0.97992976  0.60751617     0.33700
H1118       H  0.99376519  0.02041025  0.60189226     0.30400
H1119       H  0.85918829  0.98272207  0.66421859     0.38300
H1120       H  0.85342008  0.02297880  0.65830685     0.33700
loop_ 
_geom_bond_atom_site_label_1 
_geom_bond_atom_site_label_2 
_geom_bond_distance 
_geom_bond_site_symmetry_2 
_ccdc_geom_bond_type 
O1           Ni9   1.922       .  S
O1           C11   1.282       .  A
O2           Ni9   1.927       .  S
O2           C12   1.282       .  A
O3           Ni9   1.916       .  S
O3           C13   1.281       .  A
O4           Ni9   1.915       .  S
O4           C14   1.281       .  A
O5          Ni10   1.922       .  S
O5           C14   1.282       .  A
O6          Ni10   1.919       .  S
O6           C13   1.282       .  A
O7          Ni10   1.900       .  S
O7           C12   1.278       .  A
O8          Ni10   1.905       .  S
O8           C11   1.280       .  A
Ni9         Ni10   2.387       .  S
C11        C1009   1.488       .  S
C12        C1093   1.472       .  S
C13        C1037   1.480       .  S
C14        C1065   1.483       .  S
O15         Ni23   1.921       .  S
O15          C25   1.282       .  A
O16         Ni23   1.920       .  S
O16          C26   1.281       .  A
O17         Ni23   1.908       .  S
O17          C27   1.280       .  A
O18         Ni23   1.909       .  S
O18          C28   1.281       .  A
O19         Ni24   1.918       .  S
O19          C28   1.282       .  A
O20         Ni24   1.914       .  S
O20          C27   1.281       .  A
O21         Ni24   1.909       .  S
O21          C26   1.280       .  A
O22         Ni24   1.909       .  S
O22          C25   1.280       .  A
Ni23        Ni24   2.386       .  S
C25         C925   1.483       .  S
C26        C1106   1.477       .  S
C27         C981   1.479       .  S
C28         C953   1.486       .  S
O29         Ni37   1.927       .  S
O29          C39   1.283       .  A
O30         Ni37   1.925       .  S
O30          C40   1.282       .  A
O31         Ni37   1.910       .  S
O31          C41   1.279       .  A
O32         Ni37   1.908       .  S
O32          C42   1.279       .  A
O33         Ni38   1.911       .  S
O33          C42   1.282       .  A
O34         Ni38   1.911       .  S
O34          C41   1.281       .  A
O35         Ni38   1.905       .  S
O35          C40   1.279       .  A
O36         Ni38   1.908       .  S
O36          C39   1.279       .  A
Ni37        Ni38   2.387       .  S
C39         C854   1.479       .  S
C40         C897   1.475       .  S
C41         C994   1.477       .  S
C42         C869   1.485       .  S
O43         Ni51   1.917       .  S
O43          C53   1.282       .  A
O44         Ni51   1.918       .  S
O44          C54   1.280       .  A
O45         Ni51   1.912       .  S
O45          C55   1.280       .  A
O46         Ni51   1.917       .  S
O46          C56   1.282       .  A
O47         Ni52   1.916       .  S
O47          C56   1.281       .  A
O48         Ni52   1.920       .  S
O48          C55   1.283       .  A
O49         Ni52   1.907       .  S
O49          C54   1.280       .  A
O50         Ni52   1.909       .  S
O50          C53   1.279       .  A
Ni51        Ni52   2.386       .  S
C53         C770   1.479       .  S
C54         C910   1.470       .  S
C55         C798   1.483       .  S
C56         C813   1.486       .  S
O57         Ni65   1.922       .  S
O57          C67   1.283       .  A
O58         Ni65   1.925       .  S
O58          C68   1.281       .  A
O59         Ni65   1.916       .  S
O59          C69   1.282       .  A
O60         Ni65   1.910       .  S
O60          C70   1.280       .  A
O61         Ni66   1.922       .  S
O61          C70   1.283       .  A
O62         Ni66   1.918       .  S
O62          C69   1.282       .  A
O63         Ni66   1.900       .  S
O63          C68   1.279       .  A
O64         Ni66   1.906       .  S
O64          C67   1.279       .  A
Ni65        Ni66   2.385       .  S
C67         C938   1.480       .  S
C68         C729   1.470       .  S
C69         C701   1.493       .  S
C70         C686   1.490       .  S
O71         Ni79   1.923       .  S
O71          C81   1.283       .  A
O72         Ni79   1.922       .  S
O72          C82   1.281       .  A
O73         Ni79   1.917       .  S
O73          C83   1.282       .  A
O74         Ni79   1.918       .  S
O74          C84   1.281       .  A
O75         Ni80   1.921       .  S
O75          C84   1.283       .  A
O76         Ni80   1.923       .  S
O76          C83   1.282       .  A
O77         Ni80   1.902       .  S
O77          C82   1.280       .  A
O78         Ni80   1.901       .  S
O78          C81   1.279       .  A
Ni79        Ni80   2.384       .  S
C81        C1022   1.476       .  S
C82         C742   1.488       .  S
C83         C645   1.486       .  S
C84         C826   1.492       .  S
O85         Ni93   1.917       .  S
O85          C95   1.283       .  A
O86         Ni93   1.924       .  S
O86          C96   1.282       .  A
O87         Ni93   1.914       .  S
O87          C97   1.279       .  A
O88         Ni93   1.918       .  S
O88          C98   1.281       .  A
O89         Ni94   1.919       .  S
O89          C98   1.281       .  A
O90         Ni94   1.920       .  S
O90          C97   1.281       .  A
O91         Ni94   1.903       .  S
O91          C96   1.280       .  A
O92         Ni94   1.906       .  S
O92          C95   1.279       .  A
Ni93        Ni94   2.390       .  S
C95         C757   1.482       .  S
C96         C630   1.477       .  S
C97         C589   1.467       .  S
C98        C1078   1.473       .  S
O99        Ni107   1.919       .  S
O99         C109   1.282       .  A
O100       Ni107   1.919       .  S
O100        C110   1.280       .  A
O101       Ni107   1.920       .  S
O101        C111   1.283       .  A
O102       Ni107   1.918       .  S
O102        C112   1.283       .  A
O103       Ni108   1.913       .  S
O103        C112   1.280       .  A
O104       Ni108   1.917       .  S
O104        C111   1.281       .  A
O105       Ni108   1.913       .  S
O105        C110   1.280       .  A
O106       Ni108   1.917       .  S
O106        C109   1.281       .  A
Ni107      Ni108   2.386       .  S
C109        C841   1.483       .  S
C110        C617   1.467       .  S
C111        C714   1.490       .  S
C112        C561   1.491       .  S
O113       Ni121   1.928       .  S
O113        C123   1.283       .  A
O114       Ni121   1.926       .  S
O114        C124   1.282       .  A
O115       Ni121   1.903       .  S
O115        C125   1.278       .  A
O116       Ni121   1.906       .  S
O116        C126   1.279       .  A
O117       Ni122   1.921       .  S
O117        C126   1.283       .  A
O118       Ni122   1.918       .  S
O118        C125   1.283       .  A
O119       Ni122   1.907       .  S
O119        C124   1.278       .  A
O120       Ni122   1.910       .  S
O120        C123   1.280       .  A
Ni121      Ni122   2.387       .  S
C123        C477   1.488       .  S
C124        C533   1.467       .  S
C125        C505   1.483       .  S
C126        C673   1.478       .  S
O127       Ni135   1.927       .  S
O127        C137   1.284       .  A
O128       Ni135   1.922       .  S
O128        C138   1.282       .  A
O129       Ni135   1.920       .  S
O129        C139   1.281       .  A
O130       Ni135   1.919       .  S
O130        C140   1.283       .  A
O131       Ni136   1.916       .  S
O131        C140   1.281       .  A
O132       Ni136   1.921       .  S
O132        C139   1.281       .  A
O133       Ni136   1.910       .  S
O133        C138   1.280       .  A
O134       Ni136   1.906       .  S
O134        C137   1.279       .  A
Ni135      Ni136   2.385       .  S
C137        C421   1.489       .  S
C138        C546   1.479       .  S
C139        C658   1.476       .  S
C140        C449   1.493       .  S
O141       Ni149   1.921       .  S
O141        C151   1.282       .  A
O142       Ni149   1.917   1_455  S
O142        C152   1.282       .  A
O143       Ni149   1.913       .  S
O143        C153   1.281       .  A
O144       Ni149   1.913       .  S
O144        C154   1.280       .  A
O145       Ni150   1.914       .  S
O145        C154   1.280       .  A
O146       Ni150   1.914       .  S
O146        C153   1.281       .  A
O147       Ni150   1.901       .  S
O147        C152   1.279   1_655  A
O148       Ni150   1.900       .  S
O148        C151   1.279       .  A
Ni149      Ni150   2.386       .  S
C151        C337   1.485       .  S
C152        C393   1.478       .  S
C153        C785   1.480       .  S
C154        C378   1.471       .  S
O155       Ni163   1.925       .  S
O155        C165   1.283       .  A
O156       Ni163   1.925       .  S
O156        C166   1.282       .  A
O157       Ni163   1.915       .  S
O157        C167   1.281       .  A
O158       Ni163   1.911       .  S
O158        C168   1.280       .  A
O159       Ni164   1.907       .  S
O159        C168   1.280       .  A
O160       Ni164   1.903       .  S
O160        C167   1.280       .  A
O161       Ni164   1.892       .  S
O161        C166   1.277       .  A
O162       Ni164   1.895       .  S
O162        C165   1.278       .  A
Ni163      Ni164   2.389       .  S
C165        C322   1.478       .  S
C166        C406   1.468       .  S
C167        C518   1.476       .  S
C168        C882   1.475       .  S
O169       Ni177   1.925       .  S
O169        C179   1.283       .  A
O170       Ni177   1.926       .  S
O170        C180   1.283   1_545  A
O171       Ni177   1.914       .  S
O171        C181   1.281       .  A
O172       Ni177   1.908       .  S
O172        C182   1.280       .  A
O173       Ni178   1.922       .  S
O173        C182   1.282       .  A
O174       Ni178   1.920       .  S
O174        C181   1.282       .  A
O175       Ni178   1.897       .  S
O175        C180   1.278   1_545  A
O176       Ni178   1.896       .  S
O176        C179   1.277       .  A
Ni177      Ni178   2.385       .  S
C179        C309   1.474       .  S
C180        C294   1.479       .  S
C181        C266   1.491       .  S
C182        C574   1.488       .  S
O183       Ni191   1.921       .  S
O183        C193   1.282       .  A
O184       Ni191   1.919       .  S
O184        C194   1.281       .  A
O185       Ni191   1.912       .  S
O185        C195   1.280       .  A
O186       Ni191   1.911       .  S
O186        C196   1.280       .  A
O187       Ni192   1.923       .  S
O187        C196   1.283       .  A
O188       Ni192   1.921       .  S
O188        C195   1.283       .  A
O189       Ni192   1.902       .  S
O189        C194   1.279       .  A
O190       Ni192   1.900       .  S
O190        C193   1.279       .  A
Ni191      Ni192   2.388       .  S
C193        C350   1.478       .  S
C194        C281   1.467       .  S
C195        C602   1.490       .  S
C196        C462   1.478       .  S
O197       Ni205   1.925       .  S
O197        C207   1.284       .  A
O198       Ni205   1.928   1_455  S
O198        C208   1.283       .  A
O199       Ni205   1.907       .  S
O199        C209   1.279       .  A
O200       Ni205   1.913       .  S
O200        C210   1.280       .  A
O201       Ni206   1.918       .  S
O201        C210   1.283       .  A
O202       Ni206   1.923       .  S
O202        C209   1.283       .  A
O203       Ni206   1.909       .  S
O203        C208   1.279   1_655  A
O204       Ni206   1.910       .  S
O204        C207   1.279       .  A
Ni205      Ni206   2.386       .  S
C207        C434   1.486       .  S
C208        C225   1.475       .  S
C209       C1050   1.478       .  S
C210        C365   1.486       .  S
O211       Ni219   1.928       .  S
O211        C221   1.284       .  A
O212       Ni219   1.929       .  S
O212        C222   1.283   1_545  A
O213       Ni219   1.910       .  S
O213        C223   1.281       .  A
O214       Ni219   1.912       .  S
O214        C224   1.281       .  A
O215       Ni220   1.918       .  S
O215        C224   1.281       .  A
O216       Ni220   1.920       .  S
O216        C223   1.282       .  A
O217       Ni220   1.911       .  S
O217        C222   1.280   1_545  A
O218       Ni220   1.911       .  S
O218        C221   1.280       .  A
Ni219      Ni220   2.384       .  S
C221        C490   1.486       .  S
C222        C238   1.483       .  S
C223        C253   1.489       .  S
C224        C966   1.487       .  S
C225        C226   1.408       .  A
C225        C230   1.404       .  A
C226        C227   1.404       .  A
C226        N231   1.432       .  S
C227        C228   1.402       .  A
C227        H232   1.084       .  S
C228        C233   1.481       .  S
C228        C229   1.410       .  A
C229        C230   1.407       .  A
C229        N234   1.438       .  S
C230        H235   1.084       .  S
N231        H251   1.045       .  S
N231        H252   1.046       .  S
C233        C236   1.403       .  A
C233        C240   1.408       .  A
N234        H249   1.046       .  S
N234        H250   1.045       .  S
C236        C237   1.412       .  A
C236        H241   1.083       .  S
C237        C238   1.415       .  A
C237        N242   1.437       .  S
C238        C239   1.404       .  A
C239        C240   1.402       .  A
C239        H243   1.084       .  S
C240        N244   1.439       .  S
N242        H245   1.046       .  S
N242        H246   1.045       .  S
N244        H247   1.046       .  S
N244        H248   1.046       .  S
C253        C254   1.417       .  A
C253        C258   1.408       .  A
C254        C255   1.406       .  A
C254        N259   1.438       .  S
C255        C256   1.403       .  A
C255        H260   1.084       .  S
C256        C261   1.487       .  S
C256        C257   1.409       .  A
C257        C258   1.404       .  A
C257        N262   1.438       .  S
C258        H263   1.083       .  S
N259        H279   1.046       .  S
N259        H280   1.046       .  S
C261        C264   1.403       .  A
C261        C268   1.409       .  A
N262        H277   1.046   1_545  S
N262        H278   1.046   1_545  S
C264        C265   1.406       .  A
C264        H269   1.084       .  S
C265        C266   1.417       .  A
C265        N270   1.438       .  S
C266        C267   1.408       .  A
C267        C268   1.404       .  A
C267        H271   1.083       .  S
C268        N272   1.438       .  S
N270        H273   1.046       .  S
N270        H274   1.046       .  S
N272        H275   1.046       .  S
N272        H276   1.046   1_545  S
C281        C282   1.409       .  A
C281        C286   1.403       .  A
C282        C283   1.399       .  A
C282        N287   1.439       .  S
C283        C284   1.399       .  A
C283        H288   1.084       .  S
C284        C289   1.471       .  S
C284        C285   1.408       .  A
C285        C286   1.407       .  A
C285        N290   1.437       .  S
C286        H291   1.084       .  S
N287        H307   1.046       .  S
N287        H308   1.046       .  S
C289        C292   1.400       .  A
C289        C296   1.405       .  A
N290        H305   1.046       .  S
N290        H306   1.045       .  S
C292        C293   1.407       .  A
C292        H297   1.084       .  S
C293        C294   1.414       .  A
C293        N298   1.437       .  S
C294        C295   1.406       .  A
C295        C296   1.399       .  A
C295        H299   1.084       .  S
C296        N300   1.438       .  S
N298        H301   1.046       .  S
N298        H302   1.045       .  S
N300        H303   1.046       .  S
N300        H304   1.045       .  S
C309        C310   1.414       .  A
C309        C314   1.405       .  A
C310        C311   1.398       .  A
C310        N315   1.439       .  S
C311        C312   1.398       .  A
C311        H316   1.084       .  S
C312        C317   1.471       .  S
C312        C313   1.407       .  A
C313        C314   1.406       .  A
C313        N318   1.437       .  S
C314        H319   1.084       .  S
N315        H335   1.046       .  S
N315        H336   1.046       .  S
C317        C320   1.402       .  A
C317        C324   1.404       .  A
N318        H333   1.046       .  S
N318        H334   1.046       .  S
C320        C321   1.408       .  A
C320        H325   1.084       .  S
C321        C322   1.415       .  A
C321        N326   1.437       .  S
C322        C323   1.405       .  A
C323        C324   1.396       .  A
C323        H327   1.084       .  S
C324        N328   1.438       .  S
N326        H329   1.046       .  S
N326        H330   1.045       .  S
N328        H331   1.046       .  S
N328        H332   1.046       .  S
C337        C338   1.417       .  A
C337        C342   1.409       .  A
C338        C339   1.405       .  A
C338        N343   1.438       .  S
C339        C340   1.400       .  A
C339        H344   1.084       .  S
C340        C345   1.472       .  S
C340        C341   1.404       .  A
C341        C342   1.399       .  A
C341        N346   1.438       .  S
C342        H347   1.083       .  S
N343        H363   1.046       .  S
N343        H364   1.046       .  S
C345        C348   1.401       .  A
C345        C352   1.405       .  A
N346        H361   1.046       .  S
N346        H362   1.046       .  S
C348        C349   1.405       .  A
C348        H353   1.084       .  S
C349        C350   1.414       .  A
C349        N354   1.438       .  S
C350        C351   1.406       .  A
C351        C352   1.400       .  A
C351        H355   1.084       .  S
C352        N356   1.438       .  S
N354        H357   1.046       .  S
N354        H358   1.046       .  S
N356        H359   1.046       .  S
N356        H360   1.046       .  S
C365        C366   1.417       .  A
C365        C370   1.406       .  A
C366        C367   1.406       .  A
C366        N371   1.438   1_655  S
C367        C368   1.400       .  A
C367        H372   1.084   1_655  S
C368        C373   1.479       .  S
C368        C369   1.408       .  A
C369        C370   1.403       .  A
C369        N374   1.438       .  S
C370        H375   1.083       .  S
N371        H391   1.046       .  S
N371        H392   1.046       .  S
C373        C376   1.402       .  A
C373        C380   1.409   1_655  A
N374        H389   1.046       .  S
N374        H390   1.046       .  S
C376        C377   1.403       .  A
C376        H381   1.084       .  S
C377        C378   1.410       .  A
C377        N382   1.438       .  S
C378        C379   1.403       .  A
C379        C380   1.405   1_655  A
C379        H383   1.084   1_655  S
C380        N384   1.438       .  S
N382        H385   1.046       .  S
N382        H386   1.046       .  S
N384        H387   1.046       .  S
N384        H388   1.046       .  S
C393        C394   1.415       .  A
C393        C398   1.408       .  A
C394        C395   1.397       .  A
C394        N399   1.439       .  S
C395        C396   1.399       .  A
C395        H400   1.084       .  S
C396        C401   1.472       .  S
C396        C397   1.405       .  A
C397        C398   1.406       .  A
C397        N402   1.437       .  S
C398        H403   1.083       .  S
N399        H419   1.045       .  S
N399        H420   1.046       .  S
C401        C404   1.402       .  A
C401        C408   1.407       .  A
N402        H417   1.046       .  S
N402        H418   1.046       .  S
C404        C405   1.406       .  A
C404        H409   1.084       .  S
C405        C406   1.410       .  A
C405        N410   1.438       .  S
C406        C407   1.402       .  A
C407        C408   1.397       .  A
C407        H411   1.084       .  S
C408        N412   1.438       .  S
N410        H413   1.046       .  S
N410        H414   1.046       .  S
N412        H415   1.046       .  S
N412        H416   1.045       .  S
C421        C422   1.416       .  A
C421        C426   1.408       .  A
C422        C423   1.400       .  A
C422        N427   1.433       .  S
C423        C424   1.399       .  A
C423        H428   1.084       .  S
C424        C429   1.484       .  S
C424        C425   1.411       .  A
C425        C426   1.408       .  A
C425        N430   1.438       .  S
C426        H431   1.083       .  S
N427        H447   1.046       .  S
N427        H448   1.046       .  S
C429        C432   1.401       .  A
C429        C436   1.411       .  A
N430        H445   1.046       .  S
N430        H446   1.046       .  S
C432        C433   1.405       .  A
C432        H437   1.084       .  S
C433        C434   1.417       .  A
C433        N438   1.438       .  S
C434        C435   1.405       .  A
C435        C436   1.406       .  A
C435        H439   1.083       .  S
C436        N440   1.438       .  S
N438        H441   1.046       .  S
N438        H442   1.046       .  S
N440        H443   1.046       .  S
N440        H444   1.046       .  S
C449        C450   1.420       .  A
C449        C454   1.410       .  A
C450        C451   1.406       .  A
C450        N455   1.438       .  S
C451        C452   1.398       .  A
C451        H456   1.084       .  S
C452        C457   1.477       .  S
C452        C453   1.405       .  A
C453        C454   1.406       .  A
C453        N458   1.438       .  S
C454        H459   1.083       .  S
N455        H475   1.046       .  S
N455        H476   1.046       .  S
C457        C460   1.400       .  A
C457        C464   1.408       .  A
N458        H473   1.046       .  S
N458        H474   1.045       .  S
C460        C461   1.406       .  A
C460        H465   1.084       .  S
C461        C462   1.413       .  A
C461        N466   1.438       .  S
C462        C463   1.404       .  A
C463        C464   1.406       .  A
C463        H467   1.084       .  S
C464        N468   1.438       .  S
N466        H469   1.046       .  S
N466        H470   1.046       .  S
N468        H471   1.046       .  S
N468        H472   1.045       .  S
C477        C478   1.416       .  A
C477        C482   1.408       .  A
C478        C479   1.409       .  A
C478        N483   1.437       .  S
C479        C480   1.401       .  A
C479        H484   1.084       .  S
C480        C485   1.480       .  S
C480        C481   1.406       .  A
C481        C482   1.404       .  A
C481        N486   1.438       .  S
C482        H487   1.084       .  S
N483        H503   1.045       .  S
N483        H504   1.046       .  S
C485        C488   1.399       .  A
C485        C492   1.408       .  A
N486        H501   1.046       .  S
N486        H502   1.045       .  S
C488        C489   1.406       .  A
C488        H493   1.084       .  S
C489        C490   1.417       .  A
C489        N494   1.438       .  S
C490        C491   1.406       .  A
C491        C492   1.408       .  A
C491        H495   1.083       .  S
C492        N496   1.437       .  S
N494        H497   1.046       .  S
N494        H498   1.046       .  S
N496        H499   1.046       .  S
N496        H500   1.046       .  S
C505        C506   1.419       .  A
C505        C510   1.407       .  A
C506        C507   1.401       .  A
C506        N511   1.438       .  S
C507        C508   1.398       .  A
C507        H512   1.084       .  S
C508        C513   1.475       .  S
C508        C509   1.407       .  A
C509        C510   1.403       .  A
C509        N514   1.438       .  S
C510        H515   1.083       .  S
N511        H531   1.046       .  S
N511        H532   1.046       .  S
C513        C516   1.401       .  A
C513        C520   1.408       .  A
N514        H529   1.046       .  S
N514        H530   1.046       .  S
C516        C517   1.404       .  A
C516        H521   1.084       .  S
C517        C518   1.414       .  A
C517        N522   1.438       .  S
C518        C519   1.404       .  A
C519        C520   1.399       .  A
C519        H523   1.084       .  S
C520        N524   1.438       .  S
N522        H525   1.046       .  S
N522        H526   1.046       .  S
N524        H527   1.046       .  S
N524        H528   1.046       .  S
C533        C534   1.403       .  A
C533        C538   1.403       .  A
C534        C535   1.399       .  A
C534        N539   1.433       .  S
C535        C536   1.404       .  A
C535        H540   1.084       .  S
C536        C541   1.483       .  S
C536        C537   1.412       .  A
C537        C538   1.409       .  A
C537        N542   1.437       .  S
C538        H543   1.084       .  S
N539        H559   1.046       .  S
N539        H560   1.045       .  S
C541        C544   1.402       .  A
C541        C548   1.410       .  A
N542        H557   1.046       .  S
N542        H558   1.045       .  S
C544        C545   1.404       .  A
C544        H549   1.084       .  S
C545        C546   1.413       .  A
C545        N550   1.438       .  S
C546        C547   1.404       .  A
C547        C548   1.406       .  A
C547        H551   1.084       .  S
C548        N552   1.437       .  S
N550        H553   1.046       .  S
N550        H554   1.046       .  S
N552        H555   1.046       .  S
N552        H556   1.046       .  S
C561        C562   1.420       .  A
C561        C566   1.409       .  A
C562        C563   1.405       .  A
C562        N567   1.438       .  S
C563        C564   1.399   1_556  A
C563        H568   1.084       .  S
C564        C569   1.481       .  S
C564        C565   1.407       .  A
C565        C566   1.404   1_554  A
C565        N570   1.438       .  S
C566        H571   1.083       .  S
N567        H587   1.045       .  S
N567        H588   1.046       .  S
C569        C572   1.401       .  A
C569        C576   1.407       .  A
N570        H585   1.046       .  S
N570        H586   1.046       .  S
C572        C573   1.407       .  A
C572        H577   1.084       .  S
C573        C574   1.417       .  A
C573        N578   1.437       .  S
C574        C575   1.408       .  A
C575        C576   1.402       .  A
C575        H579   1.083       .  S
C576        N580   1.438       .  S
N578        H581   1.046       .  S
N578        H582   1.045       .  S
N580        H583   1.046       .  S
N580        H584   1.046       .  S
C589        C590   1.408       .  A
C589        C594   1.399       .  A
C590        C591   1.408       .  A
C590        N595   1.437       .  S
C591        C592   1.405       .  A
C591        H596   1.084       .  S
C592        C597   1.483   1_556  S
C592        C593   1.412       .  A
C593        C594   1.403       .  A
C593        N598   1.438       .  S
C594        H599   1.084       .  S
N595        H615   1.046       .  S
N595        H616   1.046       .  S
C597        C600   1.400       .  A
C597        C604   1.409       .  A
N598        H613   1.046       .  S
N598        H614   1.046   1_556  S
C600        C601   1.401       .  A
C600        H605   1.084       .  S
C601        C602   1.416       .  A
C601        N606   1.432       .  S
C602        C603   1.409       .  A
C603        C604   1.408       .  A
C603        H607   1.083       .  S
C604        N608   1.438       .  S
N606        H609   1.046       .  S
N606        H610   1.046       .  S
N608        H611   1.046       .  S
N608        H612   1.046       .  S
C617        C618   1.408       .  A
C617        C622   1.400       .  A
C618        C619   1.406       .  A
C618        N623   1.438       .  S
C619        C620   1.404       .  A
C619        H624   1.084       .  S
C620        C625   1.481       .  S
C620        C621   1.412       .  A
C621        C622   1.404       .  A
C621        N626   1.438       .  S
C622        H627   1.084       .  S
N623        H643   1.045       .  S
N623        H644   1.046       .  S
C625        C628   1.403       .  A
C625        C632   1.410       .  A
N626        H641   1.046       .  S
N626        H642   1.046       .  S
C628        C629   1.408       .  A
C628        H633   1.084       .  S
C629        C630   1.414   1_545  A
C629        N634   1.438   1_545  S
C630        C631   1.403       .  A
C631        C632   1.400   1_565  A
C631        H635   1.084       .  S
C632        N636   1.439       .  S
N634        H637   1.046   1_565  S
N634        H638   1.045       .  S
N636        H639   1.046       .  S
N636        H640   1.046       .  S
C645        C646   1.414       .  A
C645        C650   1.406       .  A
C646        C647   1.407       .  A
C646        N651   1.438       .  S
C647        C648   1.404       .  A
C647        H652   1.084       .  S
C648        C653   1.490       .  S
C648        C649   1.411       .  A
C649        C650   1.407       .  A
C649        N654   1.438       .  S
C650        H655   1.084       .  S
N651        H671   1.046       .  S
N651        H672   1.046       .  S
C653        C656   1.405       .  A
C653        C660   1.412       .  A
N654        H669   1.046       .  S
N654        H670   1.046       .  S
C656        C657   1.406       .  A
C656        H661   1.084       .  S
C657        C658   1.409       .  A
C657        N662   1.438       .  S
C658        C659   1.403       .  A
C659        C660   1.408       .  A
C659        H663   1.084       .  S
C660        N664   1.437       .  S
N662        H665   1.046       .  S
N662        H666   1.046       .  S
N664        H667   1.046       .  S
N664        H668   1.046       .  S
C673        C674   1.412       .  A
C673        C678   1.404       .  A
C674        C675   1.400       .  A
C674        N679   1.433       .  S
C675        C676   1.400       .  A
C675        H680   1.084       .  S
C676        C681   1.480       .  S
C676        C677   1.410       .  A
C677        C678   1.406       .  A
C677        N682   1.437       .  S
C678        H683   1.084       .  S
N679        H699   1.046       .  S
N679        H700   1.046       .  S
C681        C684   1.399       .  A
C681        C688   1.408       .  A
N682        H697   1.046       .  S
N682        H698   1.046       .  S
C684        C685   1.403       .  A
C684        H689   1.084       .  S
C685        C686   1.419       .  A
C685        N690   1.438       .  S
C686        C687   1.408       .  A
C687        C688   1.406       .  A
C687        H691   1.083       .  S
C688        N692   1.438       .  S
N690        H693   1.046       .  S
N690        H694   1.046       .  S
N692        H695   1.046       .  S
N692        H696   1.046       .  S
C701        C702   1.419       .  A
C701        C706   1.410       .  A
C702        C703   1.405       .  A
C702        N707   1.438       .  S
C703        C704   1.402       .  A
C703        H708   1.084       .  S
C704        C709   1.487       .  S
C704        C705   1.408       .  A
C705        C706   1.406       .  A
C705        N710   1.438       .  S
C706        H711   1.083       .  S
N707        H727   1.046       .  S
N707        H728   1.046       .  S
C709        C712   1.402       .  A
C709        C716   1.409       .  A
N710        H725   1.046       .  S
N710        H726   1.046       .  S
C712        C713   1.407       .  A
C712        H717   1.084       .  S
C713        C714   1.418       .  A
C713        N718   1.438       .  S
C714        C715   1.407       .  A
C715        C716   1.405       .  A
C715        H719   1.083       .  S
C716        N720   1.438       .  S
N718        H721   1.046       .  S
N718        H722   1.045       .  S
N720        H723   1.046       .  S
N720        H724   1.046       .  S
C729        C730   1.409       .  A
C729        C734   1.403       .  A
C730        C731   1.399       .  A
C730        N735   1.438       .  S
C731        C732   1.402       .  A
C731        H736   1.084       .  S
C732        C737   1.480       .  S
C732        C733   1.412       .  A
C733        C734   1.408       .  A
C733        N738   1.438       .  S
C734        H739   1.084       .  S
N735        H755   1.046       .  S
N735        H756   1.046       .  S
C737        C740   1.401       .  A
C737        C744   1.409       .  A
N738        H753   1.046       .  S
N738        H754   1.045       .  S
C740        C741   1.410       .  A
C740        H745   1.083       .  S
C741        C742   1.419       .  A
C741        N746   1.437       .  S
C742        C743   1.406       .  A
C743        C744   1.396       .  A
C743        H747   1.083       .  S
C744        N748   1.440       .  S
N746        H749   1.046       .  S
N746        H750   1.045       .  S
N748        H751   1.046       .  S
N748        H752   1.046       .  S
C757        C758   1.417       .  A
C757        C762   1.405       .  A
C758        C759   1.403       .  A
C758        N763   1.438       .  S
C759        C760   1.401       .  A
C759        H764   1.084       .  S
C760        C765   1.480       .  S
C760        C761   1.409       .  A
C761        C762   1.403       .  A
C761        N766   1.438       .  S
C762        H767   1.083       .  S
N763        H783   1.046       .  S
N763        H784   1.046       .  S
C765        C768   1.401       .  A
C765        C772   1.410       .  A
N766        H781   1.046       .  S
N766        H782   1.046       .  S
C768        C769   1.403       .  A
C768        H773   1.084       .  S
C769        C770   1.415       .  A
C769        N774   1.438       .  S
C770        C771   1.404       .  A
C771        C772   1.403       .  A
C771        H775   1.084       .  S
C772        N776   1.438       .  S
N774        H777   1.046       .  S
N774        H778   1.045       .  S
N776        H779   1.046       .  S
N776        H780   1.046       .  S
C785        C786   1.415       .  A
C785        C790   1.405       .  A
C786        C787   1.406       .  A
C786        N791   1.438       .  S
C787        C788   1.400       .  A
C787        H792   1.084       .  S
C788        C793   1.473   1_554  S
C788        C789   1.406       .  A
C789        C790   1.402       .  A
C789        N794   1.438       .  S
C790        H795   1.084       .  S
N791        H811   1.045       .  S
N791        H812   1.046       .  S
C793        C796   1.398       .  A
C793        C800   1.406       .  A
N794        H809   1.046       .  S
N794        H810   1.045   1_554  S
C796        C797   1.403       .  A
C796        H801   1.084   1_556  S
C797        C798   1.417       .  A
C797        N802   1.438       .  S
C798        C799   1.407       .  A
C799        C800   1.405       .  A
C799        H803   1.084       .  S
C800        N804   1.438       .  S
N802        H805   1.046       .  S
N802        H806   1.045       .  S
N804        H807   1.046       .  S
N804        H808   1.045       .  S
C813        C814   1.418       .  A
C813        C818   1.407       .  A
C814        C815   1.407       .  A
C814        N819   1.438       .  S
C815        C816   1.400       .  A
C815        H820   1.084       .  S
C816        C821   1.479       .  S
C816        C817   1.406       .  A
C817        C818   1.404       .  A
C817        N822   1.438       .  S
C818        H823   1.083       .  S
N819        H839   1.045       .  S
N819        H840   1.046       .  S
C821        C824   1.399       .  A
C821        C828   1.407       .  A
N822        H837   1.046       .  S
N822        H838   1.045       .  S
C824        C825   1.408       .  A
C824        H829   1.084       .  S
C825        C826   1.419       .  A
C825        N830   1.438       .  S
C826        C827   1.408       .  A
C827        C828   1.405       .  A
C827        H831   1.083       .  S
C828        N832   1.438       .  S
N830        H833   1.046       .  S
N830        H834   1.046       .  S
N832        H835   1.046       .  S
N832        H836   1.045       .  S
C841        C842   1.413       .  A
C841        C846   1.406       .  A
C842        C843   1.405       .  A
C842        N847   1.438       .  S
C843        C844   1.403       .  A
C843        H848   1.084       .  S
C844        C849   1.486       .  S
C844        C845   1.410       .  A
C845        C846   1.407       .  A
C845        N850   1.438       .  S
C846        H851   1.084       .  S
N847        H867   1.046       .  S
N847        H868   1.046       .  S
C849        C852   1.404       .  A
C849        C856   1.410       .  A
N850        H865   1.046       .  S
N850        H866   1.045       .  S
C852        C853   1.409       .  A
C852        H857   1.084       .  S
C853        C854   1.413       .  A
C853        N858   1.438       .  S
C854        C855   1.403       .  A
C855        C856   1.403       .  A
C855        H859   1.084       .  S
C856        N860   1.438       .  S
N858        H861   1.046       .  S
N858        H862   1.045       .  S
N860        H863   1.046       .  S
N860        H864   1.046       .  S
C869        C870   1.419       .  A
C869        C874   1.408       .  A
C870        C871   1.403   1_556  A
C870        N875   1.438       .  S
C871        C872   1.400       .  A
C871        H876   1.084       .  S
C872        C877   1.476       .  S
C872        C873   1.406   1_554  A
C873        C874   1.401       .  A
C873        N878   1.438       .  S
C874        H879   1.083       .  S
N875        H895   1.046       .  S
N875        H896   1.046   1_556  S
C877        C880   1.402       .  A
C877        C884   1.407       .  A
N878        H893   1.046       .  S
N878        H894   1.046       .  S
C880        C881   1.402       .  A
C880        H885   1.084       .  S
C881        C882   1.414       .  A
C881        N886   1.438       .  S
C882        C883   1.405       .  A
C883        C884   1.401       .  A
C883        H887   1.084       .  S
C884        N888   1.438       .  S
N886        H889   1.046       .  S
N886        H890   1.045       .  S
N888        H891   1.046       .  S
N888        H892   1.046       .  S
C897        C898   1.412       .  A
C897        C902   1.406       .  A
C898        C899   1.399       .  A
C898        N903   1.439       .  S
C899        C900   1.399   1_455  A
C899        H904   1.084       .  S
C900        C905   1.473       .  S
C900        C901   1.407       .  A
C901        C902   1.409   1_655  A
C901        N906   1.437       .  S
C902        H907   1.084       .  S
N903        H923   1.046       .  S
N903        H924   1.046       .  S
C905        C908   1.401       .  A
C905        C912   1.408       .  A
N906        H921   1.046       .  S
N906        H922   1.045       .  S
C908        C909   1.403       .  A
C908        H913   1.084       .  S
C909        C910   1.409       .  A
C909        N914   1.438       .  S
C910        C911   1.403       .  A
C911        C912   1.405       .  A
C911        H915   1.084       .  S
C912        N916   1.437       .  S
N914        H917   1.046       .  S
N914        H918   1.046       .  S
N916        H919   1.046       .  S
N916        H920   1.045       .  S
C925        C926   1.417       .  A
C925        C930   1.407       .  A
C926        C927   1.402       .  A
C926        N931   1.438       .  S
C927        C928   1.397       .  A
C927        H932   1.084       .  S
C928        C933   1.473       .  S
C928        C929   1.406       .  A
C929        C930   1.406       .  A
C929        N934   1.437       .  S
C930        H935   1.083       .  S
N931        H951   1.046       .  S
N931        H952   1.046       .  S
C933        C936   1.400       .  A
C933        C940   1.406       .  A
N934        H949   1.046       .  S
N934        H950   1.046       .  S
C936        C937   1.402       .  A
C936        H941   1.084       .  S
C937        C938   1.411       .  A
C937        N942   1.432       .  S
C938        C939   1.407       .  A
C939        C940   1.404       .  A
C939        H943   1.084       .  S
C940        N944   1.438       .  S
N942        H945   1.046       .  S
N942        H946   1.046       .  S
N944        H947   1.046       .  S
N944        H948   1.045       .  S
C953        C954   1.417       .  A
C953        C958   1.407       .  A
C954        C955   1.406       .  A
C954        N959   1.438       .  S
C955        C956   1.401       .  A
C955        H960   1.084       .  S
C956        C961   1.478       .  S
C956        C957   1.407       .  A
C957        C958   1.401       .  A
C957        N962   1.438       .  S
C958        H963   1.083       .  S
N959        H979   1.046       .  S
N959        H980   1.046       .  S
C961        C964   1.400       .  A
C961        C968   1.406       .  A
N962        H977   1.046       .  S
N962        H978   1.046       .  S
C964        C965   1.406       .  A
C964        H969   1.084       .  S
C965        C966   1.417       .  A
C965        N970   1.438       .  S
C966        C967   1.408       .  A
C967        C968   1.403       .  A
C967        H971   1.083       .  S
C968        N972   1.438       .  S
N970        H973   1.046       .  S
N970        H974   1.045       .  S
N972        H975   1.046       .  S
N972        H976   1.046       .  S
C981        C982   1.415       .  A
C981        C986   1.405       .  A
C982        C983   1.400       .  A
C982        N987   1.439       .  S
C983        C984   1.401       .  A
C983        H988   1.084       .  S
C984        C989   1.482       .  S
C984        C985   1.411       .  A
C985        C986   1.405       .  A
C985        N990   1.438       .  S
C986        H991   1.084       .  S
N987       H1007   1.046       .  S
N987       H1008   1.046       .  S
C989        C992   1.402       .  A
C989        C996   1.412       .  A
N990       H1005   1.046       .  S
N990       H1006   1.046       .  S
C992        C993   1.405       .  A
C992        H997   1.084       .  S
C993        C994   1.415       .  A
C993        N998   1.438       .  S
C994        C995   1.402       .  A
C995        C996   1.399       .  A
C995        H999   1.084       .  S
C996       N1000   1.439       .  S
N998       H1001   1.046       .  S
N998       H1002   1.046       .  S
N1000      H1003   1.046       .  S
N1000      H1004   1.046       .  S
C1009      C1010   1.418       .  A
C1009      C1014   1.410       .  A
C1010      C1011   1.406       .  A
C1010      N1015   1.438       .  S
C1011      C1012   1.400       .  A
C1011      H1016   1.084       .  S
C1012      C1017   1.473       .  S
C1012      C1013   1.403       .  A
C1013      C1014   1.401       .  A
C1013      N1018   1.438       .  S
C1014      H1019   1.083       .  S
N1015      H1035   1.046       .  S
N1015      H1036   1.046       .  S
C1017      C1020   1.401       .  A
C1017      C1024   1.405       .  A
N1018      H1033   1.046       .  S
N1018      H1034   1.046       .  S
C1020      C1021   1.406       .  A
C1020      H1025   1.084       .  S
C1021      C1022   1.413       .  A
C1021      N1026   1.438       .  S
C1022      C1023   1.405       .  A
C1023      C1024   1.400       .  A
C1023      H1027   1.084       .  S
C1024      N1028   1.438       .  S
N1026      H1029   1.046       .  S
N1026      H1030   1.046       .  S
N1028      H1031   1.046       .  S
N1028      H1032   1.046       .  S
C1037      C1038   1.414       .  A
C1037      C1042   1.406       .  A
C1038      C1039   1.404       .  A
C1038      N1043   1.438       .  S
C1039      C1040   1.401       .  A
C1039      H1044   1.084       .  S
C1040      C1045   1.480       .  S
C1040      C1041   1.408       .  A
C1041      C1042   1.407       .  A
C1041      N1046   1.437       .  S
C1042      H1047   1.084       .  S
N1043      H1063   1.045       .  S
N1043      H1064   1.046       .  S
C1045      C1048   1.403       .  A
C1045      C1052   1.408       .  A
N1046      H1061   1.046       .  S
N1046      H1062   1.046       .  S
C1048      C1049   1.408       .  A
C1048      H1053   1.084       .  S
C1049      C1050   1.412       .  A
C1049      N1054   1.437       .  S
C1050      C1051   1.404       .  A
C1051      C1052   1.401       .  A
C1051      H1055   1.084       .  S
C1052      N1056   1.438       .  S
N1054      H1057   1.046       .  S
N1054      H1058   1.046       .  S
N1056      H1059   1.046       .  S
N1056      H1060   1.046       .  S
C1065      C1066   1.412       .  A
C1065      C1070   1.404       .  A
C1066      C1067   1.407       .  A
C1066      N1071   1.438       .  S
C1067      C1068   1.406       .  A
C1067      H1072   1.083       .  S
C1068      C1073   1.494       .  S
C1068      C1069   1.413       .  A
C1069      C1070   1.406       .  A
C1069      N1074   1.438       .  S
C1070      H1075   1.084       .  S
N1071      H1091   1.046       .  S
N1071      H1092   1.046       .  S
C1073      C1076   1.408       .  A
C1073      C1080   1.414       .  A
N1074      H1089   1.046       .  S
N1074      H1090   1.046       .  S
C1076      C1077   1.407       .  A
C1076      H1081   1.083       .  S
C1077      C1078   1.407       .  A
C1077      N1082   1.437       .  S
C1078      C1079   1.401       .  A
C1079      C1080   1.406       .  A
C1079      H1083   1.084       .  S
C1080      N1084   1.438       .  S
N1082      H1085   1.046       .  S
N1082      H1086   1.046       .  S
N1084      H1087   1.046       .  S
N1084      H1088   1.046       .  S
C1093      C1094   1.411   1_565  A
C1093      C1098   1.402       .  A
C1094      C1095   1.410       .  A
C1094      N1099   1.437       .  S
C1095      C1096   1.403       .  A
C1095      H1100   1.083       .  S
C1096      C1101   1.474       .  S
C1096      C1097   1.408       .  A
C1097      C1098   1.399   1_545  A
C1097      N1102   1.439       .  S
C1098      H1103   1.084       .  S
N1099      H1119   1.046   1_545  S
N1099      H1120   1.046       .  S
C1101      C1104   1.400       .  A
C1101      C1108   1.408       .  A
N1102      H1117   1.046   1_545  S
N1102      H1118   1.045       .  S
C1104      C1105   1.402   1_655  A
C1104      H1109   1.084       .  S
C1105      C1106   1.412       .  A
C1105      N1110   1.438       .  S
C1106      C1107   1.405       .  A
C1107      C1108   1.406   1_455  A
C1107      H1111   1.084       .  S
C1108      N1112   1.438       .  S
N1110      H1113   1.046       .  S
N1110      H1114   1.046       .  S
N1112      H1115   1.046       .  S
N1112      H1116   1.045       .  S
