geometry optimzed in LAMMPS
_audit_creation_date              2020-12-01 
_audit_creation_method            'lammps2cif' 
_symmetry_space_group_name_H-M    'P1' 
_symmetry_Int_Tables_number       1 
_symmetry_cell_setting            triclinic 
loop_ 
_symmetry_equiv_pos_as_xyz 
  x,y,z 
_cell_length_a                    32.18618325 
_cell_length_b                    32.18668363224955 
_cell_length_c                    32.18487152075527 
_cell_angle_alpha                 89.99732655668573 
_cell_angle_beta                  90.02779026518165 
_cell_angle_gamma                 90.00928077215997 
loop_ 
_atom_site_label 
_atom_site_type_symbol 
_atom_site_fract_x 
_atom_site_fract_y 
_atom_site_fract_z 
_atom_site_charge 
C1          C  0.73122654  0.32146529  0.27186316     0.05000
C2          C  0.69588962  0.30278391  0.25400637    -0.11100
C3          C  0.67783827  0.26723747  0.27206429     0.02500
C4          C  0.69548563  0.25031702  0.30836095    -0.09600
C5          C  0.73077220  0.26862504  0.32667657     0.05000
C6          C  0.74848439  0.30418122  0.30822756    -0.09100
H7          H  0.68241547  0.31592894  0.22606584     0.10600
H8          H  0.68170950  0.22296961  0.32239955     0.08100
H9          H  0.77565512  0.31840211  0.32217131     0.08000
C10         C  0.73118140  0.78695264  0.26986042     0.05000
C11         C  0.74901410  0.80618993  0.30489340    -0.11100
C12         C  0.73115500  0.84223167  0.32211789     0.02500
C13         C  0.69516837  0.85916089  0.30366429    -0.09600
C14         C  0.67698926  0.84032174  0.26849106     0.05000
C15         C  0.69521945  0.80419642  0.25183490    -0.09100
H16         H  0.77666537  0.79297856  0.31889111     0.10600
H17         H  0.68125039  0.88689442  0.31673973     0.08100
H18         H  0.68139288  0.78947197  0.22486791     0.08000
C19         C  0.21187601  0.84128677  0.27071540     0.05000
C20         C  0.19363638  0.85922186  0.30621029    -0.11100
C21         C  0.15805736  0.84143936  0.32445844     0.02500
C22         C  0.14070442  0.80529582  0.30681989    -0.09600
C23         C  0.15855008  0.78699147  0.27126783     0.05000
C24         C  0.19412704  0.80520247  0.25342235    -0.09100
H25         H  0.20709609  0.88705332  0.31959749     0.10600
H26         H  0.11327705  0.79150310  0.32066865     0.08100
H27         H  0.20797735  0.79131646  0.22604449     0.08000
C28         C  0.21080031  0.84439507  0.83850619     0.05000
C29         C  0.19230150  0.80931449  0.85690461    -0.11100
C30         C  0.15712541  0.79063751  0.83883126     0.02500
C31         C  0.14044615  0.80741833  0.80202755    -0.09600
C32         C  0.15864774  0.84255979  0.78339325     0.05000
C33         C  0.19387061  0.86080798  0.80172450    -0.09100
H34         H  0.20517354  0.79665772  0.88535198     0.10600
H35         H  0.11320132  0.79333699  0.78807824     0.08100
H36         H  0.20789435  0.88796931  0.78756022     0.08000
C37         C  0.72575212  0.27227968  0.79059260     0.05000
C38         C  0.68917891  0.25604729  0.80826291    -0.11100
C39         C  0.67071435  0.27525553  0.84295403     0.02500
C40         C  0.68912569  0.31116909  0.85989686    -0.09600
C41         C  0.72573768  0.32776418  0.84259089     0.05000
C42         C  0.74385597  0.30815172  0.80792954    -0.09100
H43         H  0.67522220  0.22832132  0.79516934     0.10600
H44         H  0.67514407  0.32601411  0.88669898     0.08100
H45         H  0.77211142  0.32069751  0.79456169     0.08000
C46         C  0.72543561  0.84169532  0.78685191     0.05000
C47         C  0.68909854  0.85917196  0.80393787    -0.11100
C48         C  0.67017281  0.84138908  0.83921291     0.02500
C49         C  0.68797236  0.80571650  0.85735863    -0.09600
C50         C  0.72433704  0.78791832  0.84069490     0.05000
C51         C  0.74283038  0.80610104  0.80544958    -0.09100
H52         H  0.67563747  0.88666139  0.78987715     0.10600
H53         H  0.67366260  0.79194897  0.88456172     0.08100
H54         H  0.77085694  0.79260156  0.79254658     0.08000
C55         C  0.21198916  0.27682491  0.84300067     0.05000
C56         C  0.19366240  0.25790260  0.80803896    -0.11100
C57         C  0.15892833  0.27595080  0.78845584     0.02500
C58         C  0.14251133  0.31330560  0.80420377    -0.09600
C59         C  0.16038519  0.33249599  0.83922904     0.05000
C60         C  0.19518201  0.31415702  0.85840434    -0.09100
H61         H  0.20634882  0.22905877  0.79615223     0.10600
H62         H  0.11561868  0.32723267  0.78944182     0.08100
H63         H  0.20895415  0.32873908  0.88547685     0.08000
C64         C  0.21240419  0.27012365  0.27352761     0.05000
C65         C  0.19529543  0.30607178  0.25524800    -0.11100
C66         C  0.16024424  0.32560588  0.27277859     0.02500
C67         C  0.14237148  0.30888153  0.30906671    -0.09600
C68         C  0.15895880  0.27291305  0.32771352     0.05000
C69         C  0.19398033  0.25370543  0.30972834    -0.09100
H70         H  0.20918109  0.31877252  0.22731659     0.10600
H71         H  0.11536631  0.32371899  0.32265810     0.08100
H72         H  0.20686238  0.22598216  0.32387031     0.08000
O73         O  0.00475901  0.12019251  0.55868024    -0.53500
O74         O  0.84895512  0.19949317  0.51420631    -0.61400
C75         C  0.81643590  0.18281591  0.49896606     0.99400
O76         O  0.13353242  0.02459596  0.55147045    -0.66600
O77         O  0.06118660  0.05800746  0.60059077    -0.64500
C78         C  0.73362701  0.05367461  0.56075200     0.91500
O79         O  0.90679060  0.24977329  0.56490770    -0.66700
C80         C  0.81698038  0.17943006  0.62509672     0.99000
C81         C  0.94191313  0.26789737  0.56592720     0.92000
Ti82       Ti  0.89345835  0.18478429  0.56197149     1.51200
Ti83       Ti  0.99231630  0.93074690  0.55511297     1.51300
O84         O  0.94259658  0.17290791  0.60622924    -0.60600
O85         O  0.82641327  0.05672815  0.51347671    -0.64600
C86         C  0.06999238  0.93340491  0.61624294     0.99400
O87         O  0.88236289  0.99337714  0.55636535    -0.53600
C88         C  0.81876902  0.93049821  0.49280298     0.99200
Ti89       Ti  0.81552206  0.10416307  0.55995547     1.51000
Ti90       Ti  0.99077391  0.18534522  0.56116023     1.53000
Ti91       Ti  0.07044237  0.10770209  0.55656076     1.49300
O92         O  0.80348274  0.96185717  0.60490718    -0.60300
O93         O  0.75334028  0.01972288  0.55855643    -0.66600
O94         O  0.97635422  0.24890384  0.56438003    -0.66700
O95         O  0.88093222  0.11889158  0.55943742    -0.53500
O96         O  0.05815177  0.06042508  0.51045922    -0.64500
O97         O  0.03601038  0.91724133  0.50651981    -0.61400
O98         O  0.94180225  0.17660505  0.51614335    -0.60600
O99         O  0.85237637  0.91258113  0.60454960    -0.61200
O100        O  0.98020555  0.86657756  0.55474757    -0.66700
O101        O  0.84978133  0.19637452  0.61104987    -0.61400
O102        O  0.00428435  0.99671134  0.55558838    -0.53500
C103        C  0.94647817  0.84629677  0.55423098     0.92000
O104        O  0.82747162  0.05435791  0.60346162    -0.64500
O105        O  0.03490997  0.19774597  0.60967790    -0.62000
O106        O  0.03636214  0.91752637  0.60311974    -0.61400
C107        C  0.06894235  0.18225880  0.62244717     0.99300
C108        C  0.81942039  0.92869634  0.61926335     0.99300
C109        C  0.15283862  0.05886041  0.55049717     0.91300
O110        O  0.08591913  0.96611664  0.60089442    -0.60700
O111        O  0.80081320  0.14912313  0.51266230    -0.60700
C112        C  0.06794152  0.93424178  0.49075851     0.99000
Ti113      Ti  0.06980326  0.01070306  0.55389782     1.51000
O114        O  0.85144169  0.91372333  0.50748429    -0.62000
O115        O  0.80129225  0.14656625  0.60968770    -0.60700
O116        O  0.08288406  0.15281107  0.50911694    -0.60300
O117        O  0.91075887  0.86319057  0.55477513    -0.66900
O118        O  0.03408718  0.20209866  0.51267053    -0.61900
O119        O  0.13514986  0.09404772  0.55327162    -0.66400
O120        O  0.80307767  0.96369449  0.50760645    -0.60200
Ti121      Ti  0.89560142  0.92774129  0.55574609     1.53200
O122        O  0.08574559  0.15046042  0.60592137    -0.60300
O123        O  0.94337804  0.93975154  0.51028990    -0.60600
O124        O  0.08295887  0.96822456  0.50410142    -0.60700
C125        C  0.06667205  0.18651684  0.49650253     0.99300
O126        O  0.75096359  0.08916275  0.56097138    -0.66700
Ti127      Ti  0.81714101  0.00662798  0.55723842     1.49500
O128        O  0.94402470  0.93914730  0.60063324    -0.60700
O129        O  0.44380342  0.99285146  0.11648188    -0.53500
O130        O  0.49366428  0.14628400  0.19901044    -0.61400
C131        C  0.50800924  0.17964816  0.18340592     0.99400
O132        O  0.43834300  0.86543327  0.01888797    -0.66600
O133        O  0.39639468  0.94002102  0.05572986    -0.64500
C134        C  0.44405476  0.26725206  0.05971696     0.91500
O135        O  0.44690464  0.08681245  0.24948601    -0.66700
C136        C  0.38147663  0.17959543  0.18549611     0.99000
C137        C  0.44804023  0.05095108  0.26606499     0.92000
Ti138      Ti  0.44497588  0.10272429  0.18501710     1.51200
Ti139      Ti  0.44078548  0.01038605  0.92954978     1.51300
O140        O  0.39992028  0.05416451  0.17396305    -0.60600
O141        O  0.48770879  0.17388194  0.05833688    -0.64600
C142        C  0.37672614  0.93453901  0.93068409     0.99400
O143        O  0.44155180  0.11953344  0.99629880    -0.53600
C144        C  0.50324824  0.18446240  0.93257367     0.99200
Ti145      Ti  0.44354016  0.18392974  0.10785912     1.51000
Ti146      Ti  0.44531154  0.00531237  0.18189361     1.53000
Ti147      Ti  0.44204715  0.92731342  0.10305790     1.49300
O148        O  0.39251827  0.19961471  0.96792451    -0.60300
O149        O  0.44238797  0.24826464  0.02529079    -0.66600
O150        O  0.44734967  0.01742164  0.24563371    -0.66700
O151        O  0.44334784  0.11799805  0.11983482    -0.53500
O152        O  0.48669680  0.93740982  0.05413449    -0.64500
O153        O  0.48889998  0.96650672  0.91408781    -0.61400
O154        O  0.48993935  0.05444621  0.17170180    -0.60600
O155        O  0.39177486  0.15145095  0.91785266    -0.61900
O156        O  0.43960638  0.02519351  0.86585626    -0.66700
O157        O  0.39641939  0.14622884  0.20078495    -0.61400
O158        O  0.44193565  0.99568631  0.99477967    -0.53500
C159        C  0.43874474  0.05986603  0.84722406     0.92000
O160        O  0.39752481  0.17419365  0.05992935    -0.64500
O161        O  0.39691097  0.96163308  0.19698722    -0.62000
O162        O  0.39200419  0.96733858  0.91497782    -0.61400
C163        C  0.38083315  0.92941181  0.18075088     0.99300
C164        C  0.37752572  0.18420117  0.93475624     0.99300
C165        C  0.43781617  0.84583512  0.05308380     0.91300
O166        O  0.39080155  0.91778910  0.96350004    -0.60700
O167        O  0.49283861  0.19672933  0.15113417    -0.60700
C168        C  0.50243049  0.93235591  0.92877459     0.99000
Ti169      Ti  0.44035146  0.92974323  0.00637024     1.51000
O170        O  0.48857250  0.15170787  0.91602992    -0.62000
O171        O  0.39578586  0.19679637  0.15285111    -0.60700
O172        O  0.49089809  0.91112239  0.14600571    -0.60300
O173        O  0.43912345  0.09469168  0.86572208    -0.66900
O174        O  0.49418160  0.96122958  0.19397518    -0.61900
O175        O  0.43960411  0.86323677  0.08839227    -0.66400
O176        O  0.48936215  0.19963671  0.96628626    -0.60200
Ti177      Ti  0.44053160  0.10751646  0.93045500     1.53200
O178        O  0.39386750  0.91365909  0.14702663    -0.60300
O179        O  0.48597359  0.05889263  0.93971440    -0.60600
O180        O  0.48747894  0.91538343  0.96120008    -0.60700
C181        C  0.50717275  0.92741620  0.17816976     0.99300
O182        O  0.44415008  0.24907277  0.09482924    -0.66700
Ti183      Ti  0.44174116  0.18473626  0.01067144     1.49500
O184        O  0.39581472  0.05875013  0.94127556    -0.60700
O185        O  0.88168856  0.55805552  0.99361878    -0.53500
O186        O  0.80231371  0.50610988  0.14877024    -0.61400
C187        C  0.81904810  0.49061689  0.18123290     0.99400
O188        O  0.97702867  0.56112033  0.86440582    -0.66600
O189        O  0.94139022  0.60493963  0.93844677    -0.64500
C190        C  0.94678218  0.55431677  0.26579792     0.91500
O191        O  0.75130119  0.55763347  0.09156649    -0.66700
C192        C  0.81912759  0.61647555  0.18369216     0.99000
C193        C  0.73354581  0.55999401  0.05632012     0.92000
Ti194      Ti  0.81620061  0.55550977  0.10543876     1.51200
Ti195      Ti  0.07013398  0.55924037  0.00628373     1.51300
O196        O  0.82753329  0.60172384  0.05787931    -0.60600
O197        O  0.94546314  0.50960739  0.17209996    -0.64600
C198        C  0.06731141  0.62415639  0.93100630     0.99400
O199        O  0.00666019  0.55657281  0.11662441    -0.53600
C200        C  0.07052434  0.49208314  0.17926935     0.99200
Ti201      Ti  0.89614698  0.55367267  0.18397829     1.51000
Ti202      Ti  0.81651137  0.55824472  0.00795095     1.53000
Ti203      Ti  0.89391618  0.55867911  0.92766501     1.49300
O204        O  0.03686916  0.60465005  0.19560620    -0.60300
O205        O  0.98066893  0.55516233  0.24586718    -0.66600
O206        O  0.75286007  0.55940677  0.02205863    -0.66700
O207        O  0.88188027  0.55423090  0.11852932    -0.53500
O208        O  0.94330856  0.51467969  0.93802294    -0.64500
O209        O  0.08377644  0.51223943  0.96136347    -0.61400
O210        O  0.82616344  0.51170181  0.05549264    -0.60600
O211        O  0.08803834  0.60225741  0.14854298    -0.61900
O212        O  0.13422661  0.55674498  0.01880651    -0.66700
O213        O  0.80293517  0.60294044  0.15032171    -0.61400
O214        O  0.00435907  0.56069807  0.99380221    -0.53500
C215        C  0.15391927  0.55222044  0.05259276     0.92000
O216        O  0.94395182  0.59965971  0.17292488    -0.64500
O217        O  0.80258531  0.60793359  0.96541944    -0.62000
O218        O  0.08393732  0.60883380  0.96350265    -0.61400
C219        C  0.81697407  0.62149961  0.93120505     0.99300
C220        C  0.07100538  0.61788841  0.18067042     0.99300
C221        C  0.94287751  0.55910671  0.84494883     0.91300
O222        O  0.03397236  0.61012956  0.91500166    -0.60700
O223        O  0.85254017  0.50455451  0.19720821    -0.60700
C224        C  0.06802082  0.49887386  0.92785851     0.99000
Ti225      Ti  0.99079287  0.56093992  0.92820800     1.51000
O226        O  0.08570468  0.50547133  0.14535536    -0.62000
O227        O  0.85203591  0.60134539  0.19947796    -0.60700
O228        O  0.85091076  0.50944061  0.91429307    -0.60300
O229        O  0.13676456  0.55268578  0.08817209    -0.66900
O230        O  0.80142124  0.51095408  0.96310248    -0.61900
O231        O  0.90758619  0.55837465  0.86270736    -0.66400
O232        O  0.03833560  0.50771378  0.19601824    -0.60200
Ti233      Ti  0.07229729  0.55550080  0.10316455     1.53200
O234        O  0.84888451  0.60612655  0.91367470    -0.60300
O235        O  0.05976604  0.51253511  0.05332540    -0.60600
O236        O  0.03487771  0.51355397  0.91241396    -0.60700
C237        C  0.81753544  0.49570581  0.93037651     0.99300
O238        O  0.91120623  0.55314387  0.24861015    -0.66700
Ti239      Ti  0.99361913  0.55551615  0.18201905     1.49500
O240        O  0.06197194  0.60270098  0.05650144    -0.60700
N241        N  0.03857258  0.50767408  0.51081184    -0.34700
N242        N  0.03842523  0.51156417  0.60110133    -0.55300
N243        N  0.03625162  0.60142823  0.60143519    -0.34700
N244        N  0.03788110  0.59796965  0.51116183    -0.55300
C245        C  0.02462053  0.46923606  0.52043369     0.28900
C246        C  0.02580511  0.51561789  0.47161133     0.28900
C247        C  0.02302446  0.59317220  0.64041699     0.28900
C248        C  0.02244127  0.63989218  0.59191730     0.28900
C249        C  0.04118166  0.47020125  0.59568791     0.37500
C250        C  0.04071261  0.51822028  0.64233562     0.37500
C251        C  0.04103892  0.59129792  0.46995098     0.37500
C252        C  0.03891362  0.63948806  0.51647372     0.37500
C253        C  0.00536262  0.45160410  0.48612188    -0.20000
C254        C  0.00622800  0.48081786  0.45525658    -0.20000
C255        C  0.00312487  0.62775706  0.65674124    -0.20000
C256        C  0.00277052  0.65723999  0.62615374    -0.20000
C257        C  0.04748035  0.45054676  0.63350473    -0.21000
C258        C  0.04718975  0.48108873  0.66317425    -0.21000
C259        C  0.04604363  0.62868483  0.44910562    -0.21000
C260        C  0.04461342  0.65929341  0.47865367    -0.21000
C261        C  0.02723833  0.45013335  0.55968730    -0.16400
C262        C  0.02934191  0.55392632  0.45078000    -0.16400
C263        C  0.02569283  0.65941459  0.55291139    -0.16400
C264        C  0.02678197  0.55488088  0.66120948    -0.16400
H265        H  0.99105800  0.42125359  0.48384073     0.16500
H266        H  0.99256331  0.47725163  0.42473188     0.16500
H267        H  0.98917908  0.63111123  0.68714804     0.16500
H268        H  0.98847479  0.68757370  0.62857789     0.16500
H269        H  0.04847696  0.41743830  0.63935759     0.14800
H270        H  0.04797741  0.47622003  0.69644752     0.14800
H271        H  0.04714297  0.63353661  0.41583728     0.14800
H272        H  0.04454067  0.69239729  0.47269663     0.14800
H273        H  0.05641046  0.52703347  0.52954440     0.28100
H274        H  0.05463525  0.58237842  0.58278666     0.28100
N275        N  0.49407681  0.95712348  0.51229833    -0.34700
N276        N  0.40393901  0.96568144  0.50429361    -0.55300
N277        N  0.39454063  0.98070254  0.59244163    -0.34700
N278        N  0.48376586  0.97325910  0.60100436    -0.55300
C279        C  0.49060494  0.96357997  0.47090904     0.28900
C280        C  0.53336964  0.96779136  0.52279204     0.28900
C281        C  0.35720225  0.99397036  0.57862206     0.28900
C282        C  0.39979917  0.99714950  0.63070201     0.28900
C283        C  0.41374146  0.95668723  0.46464046     0.37500
C284        C  0.36218917  0.96864360  0.50573157     0.37500
C285        C  0.52520139  0.96764224  0.59971619     0.37500
C286        C  0.47389648  0.97808567  0.64139389     0.37500
C287        C  0.52888241  0.97484601  0.45458815    -0.20000
C288        C  0.55586775  0.97747968  0.48731001    -0.20000
C289        C  0.33772979  0.01718903  0.60936232    -0.20000
C290        C  0.36459951  0.01915585  0.64219852    -0.20000
C291        C  0.37790422  0.95233975  0.44104889    -0.21000
C292        C  0.34515800  0.95987965  0.46716662    -0.21000
C293        C  0.54162741  0.96759083  0.63954393    -0.21000
C294        C  0.50902502  0.97403173  0.66604289    -0.21000
C295        C  0.45346067  0.96277775  0.44777143    -0.16400
C296        C  0.54897272  0.97177389  0.56350628    -0.16400
C297        C  0.43563219  0.99357141  0.65541312    -0.16400
C298        C  0.34027515  0.98642290  0.53895634    -0.16400
H299        H  0.53627843  0.98212370  0.42259969     0.16500
H300        H  0.58800799  0.98716132  0.48528604     0.16500
H301        H  0.30757768  0.03198902  0.60817066     0.16500
H302        H  0.35911142  0.03575478  0.67092291     0.16500
H303        H  0.37582202  0.94736579  0.40784251     0.14800
H304        H  0.31278671  0.96158288  0.45818386     0.14800
H305        H  0.57405976  0.96579429  0.64830050     0.14800
H306        H  0.51134145  0.97811018  0.69935003     0.14800
H307        H  0.47119078  0.94643185  0.53199466     0.28100
H308        H  0.41418813  0.95990668  0.57770179     0.28100
N309        N  0.49801435  0.51229322  0.96193819    -0.34700
N310        N  0.40777053  0.50099292  0.96733951    -0.55300
N311        N  0.39377925  0.58824127  0.97864175    -0.34700
N312        N  0.48290579  0.60059175  0.97247738    -0.55300
C313        C  0.49561470  0.47162030  0.97218839     0.28900
C314        C  0.53621677  0.52533933  0.97362192     0.28900
C315        C  0.35721159  0.57280972  0.99219790     0.28900
C316        C  0.39761562  0.62651463  0.99527754     0.28900
C317        C  0.42001473  0.46170653  0.96014704     0.37500
C318        C  0.36590475  0.50053448  0.96734621     0.37500
C319        C  0.52443353  0.60134767  0.96735112     0.37500
C320        C  0.47067130  0.64052244  0.97485568     0.37500
C321        C  0.53363837  0.45797740  0.98716799    -0.20000
C322        C  0.55934325  0.49182115  0.98789573    -0.20000
C323        C  0.33688760  0.60237546  0.01619924    -0.20000
C324        C  0.36242510  0.63626705  0.01813715    -0.20000
C325        C  0.38570102  0.43638308  0.95376425    -0.21000
C326        C  0.35128894  0.46110476  0.95822053    -0.21000
C327        C  0.53854766  0.64195455  0.96488027    -0.21000
C328        C  0.50436337  0.66687145  0.96942058    -0.21000
C329        C  0.45952093  0.44697664  0.97096030    -0.16400
C330        C  0.55001444  0.56689813  0.97459873    -0.16400
C331        C  0.43193103  0.65296932  0.99046697    -0.16400
C332        C  0.34171423  0.53279228  0.98377230    -0.16400
H333        H  0.54163900  0.42712332  0.99789492     0.16500
H334        H  0.59092474  0.49193797  0.99944407     0.16500
H335        H  0.30708198  0.59975386  0.03148622     0.16500
H336        H  0.35603758  0.66460199  0.03508329     0.16500
H337        H  0.38554173  0.40297529  0.94984227     0.14800
H338        H  0.31932765  0.45063247  0.95812806     0.14800
H339        H  0.57046229  0.65241797  0.96302556     0.14800
H340        H  0.50474101  0.70042418  0.97173297     0.14800
H341        H  0.47495277  0.53001675  0.94802110     0.28100
H342        H  0.41372496  0.57465045  0.95709772     0.28100
C343        C  0.30085239  0.52350442  0.99922912    -0.16600
C344        C  0.26799352  0.52408205  0.01668975     0.07500
C345        C  0.23068385  0.53329023  0.03697233     0.09300
C346        C  0.19699547  0.54345793  0.04902727    -0.17500
C347        C  0.58955412  0.57454773  0.99399544    -0.16600
C348        C  0.62008038  0.57546687  0.01530368     0.07500
C349        C  0.65585459  0.57081561  0.03955874     0.09300
C350        C  0.68983518  0.56501392  0.05353058    -0.17500
C351        C  0.95043274  0.55514690  0.30967055    -0.16600
C352        C  0.96504248  0.55648621  0.34381519     0.07500
C353        C  0.98950696  0.55750098  0.37967323     0.09300
C354        C  0.01043994  0.55679015  0.41042470    -0.17500
C355        C  0.94591525  0.55649785  0.80103552    -0.16600
C356        C  0.96014224  0.55337674  0.76682085     0.07500
C357        C  0.98470235  0.55082823  0.73106030     0.09300
C358        C  0.00636173  0.55120051  0.70078555    -0.17500
C359        C  0.44742115  0.31111453  0.05710805    -0.16600
C360        C  0.45228844  0.34482094  0.04219532     0.07500
C361        C  0.45786086  0.37912493  0.01611655     0.09300
C362        C  0.46047049  0.40809214  0.99289013    -0.17500
C363        C  0.43453751  0.80210028  0.05103777    -0.16600
C364        C  0.43142858  0.76622769  0.04232228     0.07500
C365        C  0.42913670  0.72654274  0.02540467     0.09300
C366        C  0.42929980  0.69347319  0.00864590    -0.17500
C367        C  0.45479133  0.98078179  0.40695686    -0.16600
C368        C  0.45458214  0.00278490  0.37696890     0.07500
C369        C  0.45286097  0.02957692  0.34284890     0.09300
C370        C  0.45057338  0.04627414  0.30973681    -0.17500
C371        C  0.43475089  0.01268603  0.69569496    -0.16600
C372        C  0.43472852  0.03046025  0.72831364     0.07500
C373        C  0.43566404  0.04893802  0.76748140     0.09300
C374        C  0.43706666  0.05861344  0.80328161    -0.17500
C375        C  0.58912384  0.99073476  0.56808235    -0.16600
C376        C  0.61979255  0.01174438  0.56911605     0.07500
C377        C  0.65571507  0.03599788  0.56710983     0.09300
C378        C  0.68986982  0.05025279  0.56397644    -0.17500
C379        C  0.19636918  0.05637821  0.54425506    -0.16600
C380        C  0.23070141  0.04416032  0.53697914     0.07500
C381        C  0.26792911  0.02276752  0.53059478     0.09300
C382        C  0.30000158  0.00392600  0.53084346    -0.17500
C383        C  0.00662750  0.69959444  0.54872429    -0.16600
C384        C  0.98658815  0.73094103  0.54800671     0.07500
C385        C  0.96380941  0.76787008  0.54991899     0.09300
C386        C  0.95031659  0.80242907  0.55228381    -0.17500
C387        C  0.94435944  0.31181545  0.56880527    -0.16600
C388        C  0.95841065  0.34621927  0.56985978     0.07500
C389        C  0.98324654  0.38183893  0.56850468     0.09300
C390        C  0.00552285  0.41147418  0.56516497    -0.17500
C391        C  0.13967995  0.25555039  0.36500714    -0.16600
C392        C  0.12304315  0.24107338  0.39580489     0.07500
C393        C  0.10311746  0.22357819  0.43160059     0.09300
C394        C  0.08622361  0.20768359  0.46154738    -0.17500
C395        C  0.14216107  0.36239630  0.25320685    -0.16600
C396        C  0.12646144  0.39263653  0.23665755     0.07500
C397        C  0.10740727  0.42770166  0.21686870     0.09300
C398        C  0.09079541  0.45716378  0.19981184    -0.17500
C399        C  0.34581655  0.19875083  0.20583653    -0.16600
C400        C  0.31537133  0.21475677  0.22170656     0.07500
C401        C  0.27937007  0.23375270  0.23982143     0.09300
C402        C  0.24884209  0.25014147  0.25514101    -0.17500
C403        C  0.08932188  0.20188293  0.65777818    -0.16600
C404        C  0.10544553  0.21880084  0.68755730     0.07500
C405        C  0.12404248  0.23888216  0.72263739     0.09300
C406        C  0.13988065  0.25586988  0.75251758    -0.17500
C407        C  0.08877554  0.46500537  0.90653242    -0.16600
C408        C  0.10616936  0.43599513  0.88976427     0.07500
C409        C  0.12606293  0.40097307  0.87119717     0.09300
C410        C  0.14219956  0.37027985  0.85624178    -0.17500
C411        C  0.34227174  0.20486084  0.91534789    -0.16600
C412        C  0.31257373  0.22179302  0.89912459     0.07500
C413        C  0.27757177  0.24134989  0.87987790     0.09300
C414        C  0.24777000  0.25767893  0.86324295    -0.17500
C415        C  0.74508930  0.86028256  0.75038125    -0.16600
C416        C  0.76193424  0.87541330  0.72002957     0.07500
C417        C  0.78202055  0.89316083  0.68447089     0.09300
C418        C  0.79914046  0.90872619  0.65449133    -0.17500
C419        C  0.74304116  0.75131401  0.85996990    -0.16600
C420        C  0.75927179  0.72109621  0.87600481     0.07500
C421        C  0.77894527  0.68595518  0.89498194     0.09300
C422        C  0.79608529  0.65641015  0.91132633    -0.17500
C423        C  0.53701934  0.91196800  0.90786587    -0.16600
C424        C  0.56664779  0.89523723  0.89126574     0.07500
C425        C  0.60217414  0.87601834  0.87254390     0.09300
C426        C  0.63287152  0.86007456  0.85714474    -0.17500
C427        C  0.74488603  0.25190404  0.75491914    -0.16600
C428        C  0.76093852  0.23489611  0.72520746     0.07500
C429        C  0.78000456  0.21510937  0.69028130     0.09300
C430        C  0.79654897  0.19860638  0.66055371    -0.17500
C431        C  0.74500687  0.36456584  0.86073853    -0.16600
C432        C  0.76122692  0.39504387  0.87617848     0.07500
C433        C  0.78045080  0.43060252  0.89465468     0.09300
C434        C  0.79707402  0.46054926  0.91068673    -0.17500
C435        C  0.53784228  0.20534808  0.91228112    -0.16600
C436        C  0.56738718  0.22242981  0.89596501     0.07500
C437        C  0.60276250  0.24181862  0.87727798     0.09300
C438        C  0.63338950  0.25753250  0.86160564    -0.17500
C439        C  0.14069459  0.86062136  0.74604884    -0.16600
C440        C  0.12554303  0.87672249  0.71546284     0.07500
C441        C  0.10724027  0.89637432  0.68021579     0.09300
C442        C  0.09089110  0.91331993  0.65072919    -0.17500
C443        C  0.08721399  0.65954810  0.91122187    -0.16600
C444        C  0.10336378  0.68936379  0.89452475     0.07500
C445        C  0.12207097  0.72453305  0.87490225     0.09300
C446        C  0.13796408  0.75454814  0.85833170    -0.17500
C447        C  0.24682104  0.86388211  0.85766326    -0.16600
C448        C  0.27672084  0.88020962  0.87393024     0.07500
C449        C  0.31170686  0.89926195  0.89339088     0.09300
C450        C  0.34141456  0.91535675  0.91023705    -0.17500
C451        C  0.08811103  0.91386821  0.45578612    -0.16600
C452        C  0.10456475  0.89679284  0.42630777     0.07500
C453        C  0.12343563  0.87699156  0.39123848     0.09300
C454        C  0.13921684  0.86054553  0.36103724    -0.17500
C455        C  0.14027048  0.74972678  0.25285671    -0.16600
C456        C  0.12509197  0.71888609  0.23696686     0.07500
C457        C  0.10702679  0.68300874  0.21775405     0.09300
C458        C  0.09114002  0.65296892  0.20103782    -0.17500
C459        C  0.24874244  0.85995399  0.25199680    -0.16600
C460        C  0.27944120  0.87556997  0.23632374     0.07500
C461        C  0.31534558  0.89405458  0.21766499     0.09300
C462        C  0.34552782  0.90999212  0.20132251    -0.17500
C463        C  0.79884662  0.91111625  0.45696166    -0.16600
C464        C  0.78304823  0.89530945  0.42633764     0.07500
C465        C  0.76489331  0.87702421  0.38994827     0.09300
C466        C  0.74952336  0.86144151  0.35900083    -0.17500
C467        C  0.74966044  0.74939097  0.25253264    -0.16600
C468        C  0.76510054  0.71813966  0.23791950     0.07500
C469        C  0.78346335  0.68179728  0.22020821     0.09300
C470        C  0.79945774  0.65150289  0.20426771    -0.17500
C471        C  0.63966295  0.85796053  0.24944677    -0.16600
C472        C  0.60874291  0.87273867  0.23324616     0.07500
C473        C  0.57274248  0.89069189  0.21400847     0.09300
C474        C  0.54257486  0.90678848  0.19763163    -0.17500
C475        C  0.74868231  0.25096499  0.36444239    -0.16600
C476        C  0.76352359  0.23608279  0.39591662     0.07500
C477        C  0.78117305  0.21832807  0.43268902     0.09300
C478        C  0.79671415  0.20269718  0.46344882    -0.17500
C479        C  0.79916979  0.45496147  0.20093006    -0.16600
C480        C  0.78328074  0.42475346  0.21738052     0.07500
C481        C  0.76506555  0.38893690  0.23662690     0.09300
C482        C  0.74972023  0.35831795  0.25281008    -0.17500
C483        C  0.54383566  0.19889776  0.20314152    -0.16600
C484        C  0.57431911  0.21450179  0.21920900     0.07500
C485        C  0.61039141  0.23267924  0.23778320     0.09300
C486        C  0.64110512  0.24826887  0.25342862    -0.17500
loop_ 
_geom_bond_atom_site_label_1 
_geom_bond_atom_site_label_2 
_geom_bond_distance 
_geom_bond_site_symmetry_2 
_ccdc_geom_bond_type 
C1            C2   1.409       .  A
C1            C6   1.410       .  A
C1          C482   1.462       .  S
C2            C3   1.409       .  A
C2            H7   1.084       .  S
C3            C4   1.408       .  A
C3          C486   1.459       .  S
C4            C5   1.408       .  A
C4            H8   1.084       .  S
C5            C6   1.410       .  A
C5          C475   1.460       .  S
C6            H9   1.084       .  S
C10          C11   1.408       .  A
C10          C15   1.409       .  A
C10         C467   1.458       .  S
C11          C12   1.409       .  A
C11          H16   1.084       .  S
C12          C13   1.411       .  A
C12         C466   1.463       .  S
C13          C14   1.411       .  A
C13          H17   1.084       .  S
C14          C15   1.409       .  A
C14         C471   1.463       .  S
C15          H18   1.084       .  S
C19          C20   1.408       .  A
C19          C24   1.409       .  A
C19         C459   1.460       .  S
C20          C21   1.409       .  A
C20          H25   1.084       .  S
C21          C22   1.410       .  A
C21         C454   1.460       .  S
C22          C23   1.410       .  A
C22          H26   1.084       .  S
C23          C24   1.409       .  A
C23         C455   1.461       .  S
C24          H27   1.084       .  S
C28          C29   1.407       .  A
C28          C33   1.406       .  A
C28         C447   1.455       .  S
C29          C30   1.407       .  A
C29          H34   1.084       .  S
C30          C31   1.408       .  A
C30         C446   1.457       .  S
C31          C32   1.408       .  A
C31          H35   1.084       .  S
C32          C33   1.406       .  A
C32         C439   1.455       .  S
C33          H36   1.084       .  S
C37          C38   1.408       .  A
C37          C42   1.408       .  A
C37         C427   1.459       .  S
C38          C39   1.408       .  A
C38          H43   1.084       .  S
C39          C40   1.409       .  A
C39         C438   1.459       .  S
C40          C41   1.409       .  A
C40          H44   1.084       .  S
C41          C42   1.409       .  A
C41         C431   1.459       .  S
C42          H45   1.084       .  S
C46          C47   1.410       .  A
C46          C51   1.409       .  A
C46         C415   1.462       .  S
C47          C48   1.410       .  A
C47          H52   1.084       .  S
C48          C49   1.410       .  A
C48         C426   1.462       .  S
C49          C50   1.409       .  A
C49          H53   1.084       .  S
C50          C51   1.409       .  A
C50         C419   1.461       .  S
C51          H54   1.084       .  S
C55          C56   1.409       .  A
C55          C60   1.408       .  A
C55         C414   1.459       .  S
C56          C57   1.409       .  A
C56          H61   1.084       .  S
C57          C58   1.408       .  A
C57         C406   1.460       .  S
C58          C59   1.408       .  A
C58          H62   1.084       .  S
C59          C60   1.408       .  A
C59         C410   1.457       .  S
C60          H63   1.084       .  S
C64          C65   1.410       .  A
C64          C69   1.410       .  A
C64         C402   1.463       .  S
C65          C66   1.410       .  A
C65          H70   1.084       .  S
C66          C67   1.409       .  A
C66         C395   1.462       .  S
C67          C68   1.409       .  A
C67          H71   1.084       .  S
C68          C69   1.410       .  A
C68         C391   1.462       .  S
C69          H72   1.084       .  S
O73         Ti91   2.153       .  S
O73         Ti90   2.146   1_455  S
O74          C75   1.274       .  A
O74         Ti82   2.153       .  S
C75         C478   1.456       .  S
C75         O111   1.274       .  A
O76         C109   1.266       .  A
O76        Ti113   2.101       .  S
O77        Ti113   2.157       .  S
O77         Ti91   2.158       .  S
C78         C378   1.417       .  S
C78          O93   1.266       .  A
C78         O126   1.271       .  A
O79          C81   1.272       .  A
O79         Ti82   2.137       .  S
C80         C430   1.455       .  S
C80         O115   1.273       .  A
C80         O101   1.271       .  A
C81         C387   1.419       .  S
C81          O94   1.267       .  A
Ti82         O95   2.160       .  S
Ti82         O98   2.161       .  S
Ti82         O84   2.162       .  S
Ti82        O101   2.148       .  S
Ti83        O128   2.154       .  S
Ti83        O123   2.155       .  S
Ti83        O102   2.158   1_655  S
Ti83        O100   2.102       .  S
Ti83         O97   2.148   1_655  S
Ti83        O106   2.139   1_655  S
O84         Ti90   2.161       .  S
O85        Ti127   2.162       .  S
O85         Ti89   2.166       .  S
C86         C442   1.450       .  S
C86         O106   1.269       .  A
C86         O110   1.271       .  A
O87        Ti121   2.155       .  S
O87        Ti127   2.142   1_565  S
C88         C463   1.460       .  S
C88         O114   1.273       .  A
C88         O120   1.274       .  A
Ti89        O104   2.163       .  S
Ti89         O95   2.158       .  S
Ti89        O126   2.133       .  S
Ti89        O115   2.153       .  S
Ti89        O111   2.153       .  S
Ti90         O98   2.159       .  S
Ti90        O118   2.161   1_655  S
Ti90         O94   2.100       .  S
Ti90        O105   2.148   1_655  S
Ti91         O96   2.162       .  S
Ti91        O122   2.159       .  S
Ti91        O116   2.145       .  S
Ti91        O119   2.131       .  S
O92         C108   1.271       .  A
O92        Ti127   2.150   1_565  S
O93        Ti127   2.097       .  S
O96        Ti113   2.158       .  S
O97         C112   1.270       .  A
O99         C108   1.272       .  A
O99        Ti121   2.155       .  S
O100        C103   1.267       .  A
O102       Ti113   2.157   1_565  S
C103        C386   1.419       .  S
C103        O117   1.272       .  A
O104       Ti127   2.164       .  S
O105        C107   1.272       .  A
C107        C403   1.457       .  S
C107        O122   1.274       .  A
C108        C418   1.458       .  S
C109        C379   1.418       .  S
C109        O119   1.271       .  A
O110       Ti113   2.148   1_565  S
C112        C451   1.456       .  S
C112        O124   1.270       .  A
Ti113       O124   2.149   1_545  S
O114       Ti121   2.153       .  S
O116        C125   1.270       .  A
O117       Ti121   2.134       .  S
O118        C125   1.274       .  A
O120       Ti127   2.160   1_565  S
Ti121       O128   2.156       .  S
Ti121       O123   2.158       .  S
C125        C394   1.458       .  S
O129       Ti147   2.154       .  S
O129       Ti146   2.144   1_565  S
O130        C131   1.272       .  A
O130       Ti138   2.150       .  S
C131        C483   1.455       .  S
C131        O167   1.272       .  A
O132        C165   1.269       .  A
O132       Ti169   2.110       .  S
O133       Ti169   2.153       .  S
O133       Ti147   2.155       .  S
C134        C359   1.418       .  S
C134        O149   1.267       .  A
C134        O182   1.273       .  A
O135        C137   1.272       .  A
O135       Ti138   2.138       .  S
C136        C399   1.458       .  S
C136        O171   1.274       .  A
C136        O157   1.275       .  A
C137        C370   1.416       .  S
C137        O150   1.264       .  A
Ti138       O151   2.155       .  S
Ti138       O154   2.167       .  S
Ti138       O140   2.161       .  S
Ti138       O157   2.159       .  S
Ti139       O184   2.159       .  S
Ti139       O179   2.158       .  S
Ti139       O158   2.152   1_545  S
Ti139       O156   2.105       .  S
Ti139       O153   2.155   1_545  S
Ti139       O162   2.146   1_545  S
O140       Ti146   2.162       .  S
O141       Ti183   2.159       .  S
O141       Ti145   2.161       .  S
C142        C450   1.451       .  S
C142        O162   1.270       .  A
C142        O166   1.269       .  A
O143       Ti177   2.154       .  S
O143       Ti183   2.149   1_556  S
C144        C435   1.456       .  S
C144        O170   1.272       .  A
C144        O176   1.271       .  A
Ti145       O160   2.161       .  S
Ti145       O151   2.157       .  S
Ti145       O182   2.138       .  S
Ti145       O171   2.153       .  S
Ti145       O167   2.151       .  S
Ti146       O154   2.161       .  S
Ti146       O174   2.154   1_545  S
Ti146       O150   2.089       .  S
Ti146       O161   2.154   1_545  S
Ti147       O152   2.157       .  S
Ti147       O178   2.145       .  S
Ti147       O172   2.157       .  S
Ti147       O175   2.117       .  S
O148        C164   1.272       .  A
O148       Ti183   2.152   1_556  S
O149       Ti183   2.098       .  S
O152       Ti169   2.156       .  S
O153        C168   1.273       .  A
O155        C164   1.272       .  A
O155       Ti177   2.151       .  S
O156        C159   1.267       .  A
O158       Ti169   2.156   1_556  S
C159        C374   1.416       .  S
C159        O173   1.269       .  A
O160       Ti183   2.158       .  S
O161        C163   1.271       .  A
C163        C462   1.456       .  S
C163        O178   1.270       .  A
C164        C411   1.456       .  S
C165        C363   1.413       .  S
C165        O175   1.268       .  A
O166       Ti169   2.143   1_556  S
C168        C423   1.457       .  S
C168        O180   1.273       .  A
Ti169       O180   2.152   1_554  S
O170       Ti177   2.152       .  S
O172        C181   1.273       .  A
O173       Ti177   2.124       .  S
O174        C181   1.272       .  A
O176       Ti183   2.150   1_556  S
Ti177       O184   2.158       .  S
Ti177       O179   2.163       .  S
C181        C474   1.460       .  S
O185       Ti203   2.159       .  S
O185       Ti202   2.148   1_556  S
O186        C187   1.277       .  A
O186       Ti194   2.162       .  S
C187        C479   1.459       .  S
C187        O223   1.276       .  A
O188        C221   1.266       .  A
O188       Ti225   2.101       .  S
O189       Ti225   2.155       .  S
O189       Ti203   2.161       .  S
C190        C351   1.417       .  S
C190        O205   1.266       .  A
C190        O238   1.272       .  A
O191        C193   1.272       .  A
O191       Ti194   2.137       .  S
C192        C470   1.453       .  S
C192        O227   1.272       .  A
C192        O213   1.271       .  A
C193        C350   1.419       .  S
C193        O206   1.266       .  A
Ti194       O207   2.156       .  S
Ti194       O210   2.162       .  S
Ti194       O196   2.165       .  S
Ti194       O213   2.145       .  S
Ti195       O240   2.154       .  S
Ti195       O235   2.160       .  S
Ti195       O214   2.155   1_554  S
Ti195       O212   2.103       .  S
Ti195       O209   2.138   1_554  S
Ti195       O218   2.154   1_554  S
O196       Ti202   2.160       .  S
O197       Ti239   2.165       .  S
O197       Ti201   2.163       .  S
C198        C443   1.454       .  S
C198        O218   1.274       .  A
C198        O222   1.273       .  A
O199       Ti233   2.157       .  S
O199       Ti239   2.147   1_455  S
C200        C398   1.458       .  S
C200        O226   1.271       .  A
C200        O232   1.272       .  A
Ti201       O216   2.164       .  S
Ti201       O207   2.156       .  S
Ti201       O238   2.136       .  S
Ti201       O227   2.150       .  S
Ti201       O223   2.156       .  S
Ti202       O210   2.164       .  S
Ti202       O230   2.153   1_554  S
Ti202       O206   2.099       .  S
Ti202       O217   2.152   1_554  S
Ti203       O208   2.155       .  S
Ti203       O234   2.153       .  S
Ti203       O228   2.147       .  S
Ti203       O231   2.137       .  S
O204        C220   1.273       .  A
O204       Ti239   2.151   1_455  S
O205       Ti239   2.097       .  S
O208       Ti225   2.157       .  S
O209        C224   1.267       .  A
O211        C220   1.274       .  A
O211       Ti233   2.157       .  S
O212        C215   1.267       .  A
O214       Ti225   2.156   1_455  S
C215        C346   1.420       .  S
C215        O229   1.272       .  A
O216       Ti239   2.159       .  S
O217        C219   1.272       .  A
C219        C422   1.457       .  S
C219        O234   1.272       .  A
C220        C458   1.457       .  S
C221        C355   1.419       .  S
C221        O231   1.272       .  A
O222       Ti225   2.149   1_455  S
C224        C407   1.451       .  S
C224        O236   1.268       .  A
Ti225       O236   2.145   1_655  S
O226       Ti233   2.150       .  S
O228        C237   1.272       .  A
O229       Ti233   2.132       .  S
O230        C237   1.273       .  A
O232       Ti239   2.154   1_455  S
Ti233       O240   2.162       .  S
Ti233       O235   2.156       .  S
C237        C434   1.454       .  S
N241        C246   1.351       .  A
N241        C245   1.352       .  A
N241        H273   1.040       .  S
N242        C249   1.346       .  A
N242        C250   1.346       .  A
N243        C248   1.351       .  A
N243        C247   1.351       .  A
N243        H274   1.042       .  S
N244        C251   1.348       .  A
N244        C252   1.348       .  A
C245        C253   1.387       .  A
C245        C261   1.408       .  A
C246        C262   1.408       .  A
C246        C254   1.389       .  A
C247        C255   1.388       .  A
C247        C264   1.408       .  A
C248        C263   1.408       .  A
C248        C256   1.388       .  A
C249        C261   1.400       .  A
C249        C257   1.387       .  A
C250        C264   1.401       .  A
C250        C258   1.386       .  A
C251        C259   1.387       .  A
C251        C262   1.403       .  A
C252        C260   1.386       .  A
C252        C263   1.403       .  A
C253        C254   1.368       .  A
C253        H265   1.082   1_455  S
C254        H266   1.082   1_455  S
C255        C256   1.367       .  A
C255        H267   1.082   1_455  S
C256        H268   1.082   1_455  S
C257        C258   1.371       .  A
C257        H269   1.083       .  S
C258        H270   1.083       .  S
C259        C260   1.370       .  A
C259        H271   1.083       .  S
C260        H272   1.083       .  S
C261        C390   1.438       .  S
C262        C354   1.437       .  S
C263        C383   1.438       .  S
C264        C358   1.438       .  S
N275        C280   1.353       .  A
N275        C279   1.353       .  A
N275        H307   1.031       .  S
N276        C283   1.346       .  A
N276        C284   1.348       .  A
N277        C282   1.351       .  A
N277        C281   1.351       .  A
N277        H308   1.036       .  S
N278        C285   1.347       .  A
N278        C286   1.347       .  A
C279        C287   1.388       .  A
C279        C295   1.408       .  A
C280        C296   1.409       .  A
C280        C288   1.388       .  A
C281        C289   1.390   1_565  A
C281        C298   1.409       .  A
C282        C297   1.405       .  A
C282        C290   1.387   1_565  A
C283        C295   1.403       .  A
C283        C291   1.388       .  A
C284        C298   1.403       .  A
C284        C292   1.386       .  A
C285        C293   1.386       .  A
C285        C296   1.401       .  A
C286        C294   1.387       .  A
C286        C297   1.403       .  A
C287        C288   1.367       .  A
C287        H299   1.082       .  S
C288        H300   1.082       .  S
C289        C290   1.367       .  A
C289        H301   1.082       .  S
C290        H302   1.082       .  S
C291        C292   1.370       .  A
C291        H303   1.083       .  S
C292        H304   1.083       .  S
C293        C294   1.368       .  A
C293        H305   1.083       .  S
C294        H306   1.083       .  S
C295        C367   1.436       .  S
C296        C375   1.437       .  S
C297        C371   1.435   1_565  S
C298        C382   1.437   1_565  S
N309        C314   1.352       .  A
N309        C313   1.352       .  A
N309        H341   1.038       .  S
N310        C317   1.345       .  A
N310        C318   1.348       .  A
N311        C316   1.349       .  A
N311        C315   1.350       .  A
N311        H342   1.042       .  S
N312        C319   1.347       .  A
N312        C320   1.346       .  A
C313        C321   1.387       .  A
C313        C329   1.407       .  A
C314        C330   1.410       .  A
C314        C322   1.389       .  A
C315        C323   1.390   1_556  A
C315        C332   1.407       .  A
C316        C331   1.403       .  A
C316        C324   1.387   1_556  A
C317        C329   1.401       .  A
C317        C325   1.388       .  A
C318        C332   1.402       .  A
C318        C326   1.385       .  A
C319        C327   1.386       .  A
C319        C330   1.401       .  A
C320        C328   1.388       .  A
C320        C331   1.403       .  A
C321        C322   1.368       .  A
C321        H333   1.082       .  S
C322        H334   1.082       .  S
C323        C324   1.367       .  A
C323        H335   1.082       .  S
C324        H336   1.082       .  S
C325        C326   1.371       .  A
C325        H337   1.083       .  S
C326        H338   1.082       .  S
C327        C328   1.370       .  A
C327        H339   1.083       .  S
C328        H340   1.083       .  S
C329        C362   1.437       .  S
C330        C347   1.438       .  S
C331        C366   1.432   1_556  S
C332        C343   1.438       .  S
C343        C344   1.198   1_556  T
C344        C345   1.399       .  S
C345        C346   1.197       .  T
C347        C348   1.198   1_556  T
C348        C349   1.399       .  S
C349        C350   1.197       .  T
C351        C352   1.196       .  T
C352        C353   1.397       .  S
C353        C354   1.197   1_655  T
C355        C356   1.197       .  T
C356        C357   1.399       .  S
C357        C358   1.198   1_655  T
C359        C360   1.197       .  T
C360        C361   1.398       .  S
C361        C362   1.198   1_554  T
C363        C364   1.192       .  T
C364        C365   1.390       .  S
C365        C366   1.193       .  T
C367        C368   1.197   1_565  T
C368        C369   1.397       .  S
C369        C370   1.196       .  T
C371        C372   1.196       .  T
C372        C373   1.394       .  S
C373        C374   1.194       .  T
C375        C376   1.197   1_565  T
C376        C377   1.396       .  S
C377        C378   1.195       .  T
C379        C380   1.196       .  T
C380        C381   1.397       .  S
C381        C382   1.197       .  T
C383        C384   1.198   1_455  T
C384        C385   1.398       .  S
C385        C386   1.197       .  T
C387        C388   1.197       .  T
C388        C389   1.398       .  S
C389        C390   1.198   1_655  T
C391        C392   1.219       .  T
C392        C393   1.434       .  S
C393        C394   1.219       .  T
C395        C396   1.219       .  T
C396        C397   1.434       .  S
C397        C398   1.219       .  T
C399        C400   1.220       .  T
C400        C401   1.434       .  S
C401        C402   1.220       .  T
C403        C404   1.218       .  T
C404        C405   1.432       .  S
C405        C406   1.218       .  T
C407        C408   1.215       .  T
C408        C409   1.428       .  S
C409        C410   1.216       .  T
C411        C412   1.218       .  T
C412        C413   1.431       .  S
C413        C414   1.218       .  T
C415        C416   1.219       .  T
C416        C417   1.433       .  S
C417        C418   1.219       .  T
C419        C420   1.219       .  T
C420        C421   1.433       .  S
C421        C422   1.219       .  T
C423        C424   1.219       .  T
C424        C425   1.433       .  S
C425        C426   1.219       .  T
C427        C428   1.217       .  T
C428        C429   1.431       .  S
C429        C430   1.217       .  T
C431        C432   1.217       .  T
C432        C433   1.430       .  S
C433        C434   1.217       .  T
C435        C436   1.218       .  T
C436        C437   1.431       .  S
C437        C438   1.217       .  T
C439        C440   1.215       .  T
C440        C441   1.426       .  S
C441        C442   1.214       .  T
C443        C444   1.217       .  T
C444        C445   1.429       .  S
C445        C446   1.216       .  T
C447        C448   1.215       .  T
C448        C449   1.427       .  S
C449        C450   1.215       .  T
C451        C452   1.218       .  T
C452        C453   1.432       .  S
C453        C454   1.218       .  T
C455        C456   1.219       .  T
C456        C457   1.433       .  S
C457        C458   1.219       .  T
C459        C460   1.218       .  T
C460        C461   1.432       .  S
C461        C462   1.218       .  T
C463        C464   1.220       .  T
C464        C465   1.435       .  S
C465        C466   1.220       .  T
C467        C468   1.217       .  T
C468        C469   1.429       .  S
C469        C470   1.216       .  T
C471        C472   1.220       .  T
C472        C473   1.435       .  S
C473        C474   1.220       .  T
C475        C476   1.218       .  T
C476        C477   1.432       .  S
C477        C478   1.218       .  T
C479        C480   1.220       .  T
C480        C481   1.434       .  S
C481        C482   1.219       .  T
C483        C484   1.217       .  T
C484        C485   1.431       .  S
C485        C486   1.217       .  T
