geometry optimzed in LAMMPS
_audit_creation_date              2020-12-01 
_audit_creation_method            'lammps2cif' 
_symmetry_space_group_name_H-M    'P1' 
_symmetry_Int_Tables_number       1 
_symmetry_cell_setting            triclinic 
loop_ 
_symmetry_equiv_pos_as_xyz 
  x,y,z 
_cell_length_a                    65.31247466 
_cell_length_b                    65.7596518536935 
_cell_length_c                    29.52941928617214 
_cell_angle_alpha                 90.10585624211544 
_cell_angle_beta                  89.97128784578453 
_cell_angle_gamma                 90.12522240520053 
loop_ 
_atom_site_label 
_atom_site_type_symbol 
_atom_site_fract_x 
_atom_site_fract_y 
_atom_site_fract_z 
_atom_site_charge 
N1          N  0.77872917  0.85985289  0.66564035    -0.27400
N2          N  0.77876995  0.84150252  0.64737689    -0.35300
C3          C  0.77149302  0.84254817  0.60505907     0.00900
C4          C  0.76646342  0.86249087  0.59613678     0.06900
C5          C  0.77123901  0.87316471  0.63523547    -0.06200
H6          H  0.76924292  0.82957766  0.58299611     0.07600
H7          H  0.76917704  0.88925415  0.64136190     0.08800
Cu8        Cu  0.78677847  0.81542099  0.68127526     0.44200
Cu9        Cu  0.78859530  0.86494121  0.73139233     0.42000
Cu10       Cu  0.80480491  0.81908831  0.79454624     0.43900
N11         N  0.79180974  0.79044817  0.72152524    -0.34800
N12         N  0.79836033  0.79156607  0.76373323    -0.29100
C13         C  0.79860462  0.77274854  0.78158007    -0.05200
C14         C  0.79152936  0.75928641  0.74901572     0.07000
C15         C  0.78767345  0.77101292  0.71122321     0.00800
H16         H  0.80288120  0.76923930  0.81607732     0.08500
H17         H  0.78195925  0.76589074  0.67876466     0.07600
N18         N  0.80807918  0.84869257  0.81721669    -0.36300
N19         N  0.80157775  0.86504956  0.79547628    -0.28400
C20         C  0.80617374  0.88162872  0.82016444    -0.03700
C21         C  0.81621694  0.87537262  0.85869828     0.04900
C22         C  0.81720667  0.85447952  0.85592208     0.03000
H23         H  0.80302729  0.89709576  0.81005671     0.08100
H24         H  0.82432689  0.84425487  0.87983736     0.07000
N25         N  0.76902068  0.64201226  0.73963871    -0.27400
N26         N  0.77405770  0.64155459  0.78301821    -0.35300
C27         C  0.78169907  0.65977875  0.79510392     0.00900
C28         C  0.78147446  0.67231103  0.75759181     0.06900
C29         C  0.77326134  0.66057279  0.72314303    -0.06200
H30         H  0.78537589  0.66411584  0.82951529     0.07600
H31         H  0.76938977  0.66558153  0.68933802     0.08800
Cu32       Cu  0.76628916  0.61824432  0.82676134     0.44200
Cu33       Cu  0.75343332  0.61898807  0.70578792     0.42000
Cu34       Cu  0.73107502  0.58198265  0.78025135     0.43900
N35         N  0.75040063  0.59748193  0.86592903    -0.34800
N36         N  0.73686449  0.58464768  0.84881735    -0.29100
C37         C  0.72625824  0.57606567  0.88280366    -0.05200
C38         C  0.73364553  0.58367688  0.92331558     0.07000
C39         C  0.74890031  0.59726977  0.91132392     0.00800
H40         H  0.71311154  0.56623591  0.87823952     0.08500
H41         H  0.75678310  0.60775632  0.93361187     0.07600
N42         N  0.72667473  0.58200124  0.71091304    -0.36300
N43         N  0.73498588  0.59533117  0.68296977    -0.28400
C44         C  0.72932703  0.59072161  0.64025403    -0.03700
C45         C  0.71668245  0.57373085  0.64158306     0.04900
C46         C  0.71549612  0.56865280  0.68699773     0.03000
H47         H  0.73451015  0.59883025  0.61055466     0.08100
H48         H  0.70713638  0.55606777  0.70169992     0.07000
N49         N  0.69095797  0.86786501  0.39530479    -0.27400
N50         N  0.70094289  0.85090389  0.38621663    -0.35300
C51         C  0.71844715  0.85073693  0.40999395     0.00900
C52         C  0.71969310  0.86852322  0.43512632     0.06900
C53         C  0.70186890  0.87896415  0.42505158    -0.06200
H54         H  0.72848472  0.83771744  0.41220518     0.07600
H55         H  0.69652712  0.89289104  0.44058174     0.08800
Cu56       Cu  0.68869710  0.82702254  0.34909336     0.44200
Cu57       Cu  0.66169345  0.87346872  0.37224409     0.42000
Cu58       Cu  0.63501496  0.83052696  0.32129054     0.43900
N59         N  0.67208966  0.80344028  0.32020374    -0.34800
N60         N  0.65229406  0.80442942  0.31132042    -0.29100
C61         C  0.64579405  0.78608604  0.29693664    -0.05200
C62         C  0.66233988  0.77289883  0.29641186     0.07000
C63         C  0.67871444  0.78449493  0.31161385     0.00800
H64         H  0.62996983  0.78240774  0.28989168     0.08500
H65         H  0.69418202  0.77933069  0.31775108     0.07600
N66         N  0.62295841  0.85964918  0.32606927    -0.36300
N67         N  0.63290445  0.87529732  0.34376205    -0.28400
C68         C  0.62261480  0.89247128  0.33459641    -0.03700
C69         C  0.60529898  0.88738950  0.31028531     0.04900
C70         C  0.60597052  0.86649420  0.30547282     0.03000
H71         H  0.62826159  0.90762131  0.34155387     0.08100
H72         H  0.59595946  0.85722748  0.28474972     0.07000
N73         N  0.66583533  0.65213721  0.28566783    -0.27400
N74         N  0.66595590  0.65515045  0.24143676    -0.35300
C75         C  0.66369766  0.67511552  0.23312513     0.00900
C76         C  0.66235199  0.68526970  0.27409507     0.06900
C77         C  0.66336541  0.67013241  0.30666576    -0.06200
H78         H  0.66432402  0.68188274  0.19978107     0.07600
H79         H  0.66314560  0.67206512  0.34302858     0.08800
Cu80       Cu  0.67219102  0.63257463  0.19462288     0.44200
Cu81       Cu  0.67256487  0.62430831  0.31545838     0.42000
Cu82       Cu  0.68682092  0.58363266  0.23777854     0.43900
N83         N  0.68238405  0.60896234  0.15421647    -0.34800
N84         N  0.68805501  0.59104452  0.16995088    -0.29100
C85         C  0.69598071  0.57997875  0.13584733    -0.05200
C86         C  0.69489064  0.59141828  0.09669120     0.07000
C87         C  0.68634778  0.60973801  0.10965971     0.00800
H88         H  0.70266129  0.56503518  0.13958741     0.08500
H89         H  0.68424757  0.62307618  0.08878864     0.07600
N90         N  0.68880001  0.58150762  0.30735996    -0.36300
N91         N  0.68391591  0.59624856  0.33585129    -0.28400
C92         C  0.68980759  0.59082940  0.37779418    -0.03700
C93         C  0.69866490  0.57170426  0.37558457     0.04900
C94         C  0.69785598  0.56639869  0.33028470     0.03000
H95         H  0.68878268  0.60057077  0.40727248     0.08100
H96         H  0.70490096  0.55333280  0.31441722     0.07000
N97         N  0.43254206  0.47896735  0.50151733    -0.27400
N98         N  0.43906896  0.48104663  0.54359827    -0.35300
C99         C  0.45893313  0.48635407  0.54289137     0.00900
C100        C  0.46543668  0.48759599  0.49822488     0.06900
C101        C  0.44804375  0.48317967  0.47294975    -0.06200
H102        H  0.46831870  0.48789615  0.57288492     0.07600
H103        H  0.44667172  0.48246735  0.43656172     0.08800
Cu104      Cu  0.42181173  0.47379837  0.60040612     0.44200
Cu105      Cu  0.40422037  0.46662930  0.48510145     0.42000
Cu106      Cu  0.37515347  0.44634781  0.58061231     0.43900
N107        N  0.40432291  0.46117979  0.65193575    -0.34800
N108        N  0.38736090  0.45070212  0.64470109    -0.29100
C109        C  0.38129321  0.44211275  0.68383522    -0.05200
C110        C  0.39502467  0.44758061  0.71757697     0.07000
C111        C  0.40942724  0.45965162  0.69586574     0.00800
H112        H  0.36875368  0.43142109  0.68659383     0.08500
H113        H  0.42330838  0.46586973  0.71035890     0.07600
N114        N  0.36744099  0.44178620  0.51325564    -0.36300
N115        N  0.37797266  0.44900427  0.47852134    -0.28400
C116        C  0.36986248  0.44166908  0.43990065    -0.03700
C117        C  0.35355189  0.42914458  0.45096961     0.04900
C118        C  0.35231232  0.42980195  0.49766292     0.03000
H119        H  0.37570239  0.44488320  0.40637369     0.08100
H120        H  0.34176612  0.42141696  0.51889209     0.07000
N121        N  0.64913262  0.44421647  0.41077637    -0.27400
N122        N  0.62988448  0.43801339  0.41135936    -0.35300
C123        C  0.62848791  0.42002353  0.39018648     0.00900
C124        C  0.64771256  0.41460816  0.37490293     0.06900
C125        C  0.66054746  0.43025698  0.38882482    -0.06200
H126        H  0.61427965  0.41196564  0.38418495     0.07600
H127        H  0.67682234  0.43163204  0.38275330     0.08800
Cu128      Cu  0.60567338  0.45519235  0.43478218     0.44200
Cu129      Cu  0.65788392  0.47212930  0.43753338     0.42000
Cu130      Cu  0.61522895  0.50734341  0.46139342     0.43900
N131        N  0.58264065  0.47559735  0.44962541    -0.34800
N132        N  0.58590525  0.49503698  0.45832185    -0.29100
C133        C  0.56777292  0.50416652  0.46594439    -0.05200
C134        C  0.55238197  0.48966570  0.46206970     0.07000
C135        C  0.56245691  0.47180029  0.45133479     0.00800
H136        H  0.56599776  0.52017021  0.47335589     0.08500
H137        H  0.55561759  0.45701214  0.44566292     0.07600
N138        N  0.64590891  0.51356361  0.47435305    -0.36300
N139        N  0.66105802  0.50057382  0.46747417    -0.28400
C140        C  0.67815184  0.50793391  0.48689272    -0.03700
C141        C  0.67361709  0.52643155  0.50683069     0.04900
C142        C  0.65310750  0.52961629  0.49780148     0.03000
H143        H  0.69255715  0.49988250  0.48835158     0.08100
H144        H  0.64369602  0.54182529  0.51080421     0.07000
N145        N  0.64786268  0.33204692  0.18270967    -0.27400
N146        N  0.62973850  0.32875787  0.20117460    -0.35300
C147        C  0.62857796  0.33871227  0.24073130     0.00900
C148        C  0.64699441  0.34855683  0.24848511     0.06900
C149        C  0.65882229  0.34415330  0.21056840    -0.06200
H150        H  0.61472642  0.33987395  0.26061982     0.07600
H151        H  0.67396803  0.34991656  0.20301943     0.08800
Cu152      Cu  0.60600146  0.31359793  0.16976266     0.44200
Cu153      Cu  0.65560300  0.32078337  0.11895173     0.42000
Cu154      Cu  0.61493240  0.29190022  0.06128898     0.43900
N155        N  0.58261076  0.30466700  0.12732511    -0.34800
N156        N  0.58576552  0.29728644  0.08629434    -0.29100
C157        C  0.56782746  0.29680199  0.06387863    -0.05200
C158        C  0.55274096  0.30419515  0.09245000     0.07000
C159        C  0.56263535  0.30888228  0.13242141     0.00800
H160        H  0.56612985  0.29265398  0.02860683     0.08500
H161        H  0.55613243  0.31653234  0.16152066     0.07600
N162        N  0.64532046  0.29253879  0.04086796    -0.36300
N163        N  0.65961536  0.30415851  0.05943770    -0.28400
C164        C  0.67706514  0.30207280  0.03563707    -0.03700
C165        C  0.67381751  0.28794270  0.00166647     0.04900
C166        C  0.65347241  0.28238488  0.00567275     0.03000
H167        H  0.69116550  0.31003844  0.04293377     0.08100
H168        H  0.64508477  0.27199690  0.98407777     0.07000
N169        N  0.44255755  0.35057609  0.07626778    -0.27400
N170        N  0.44528500  0.35069790  0.03192714    -0.35300
C171        C  0.46217412  0.33997906  0.02184246     0.00900
C172        C  0.47052794  0.33264963  0.06168014     0.06900
C173        C  0.45768925  0.33978362  0.09554427    -0.06200
H174        H  0.46861939  0.33871032  0.98820072     0.07600
H175        H  0.46006917  0.33867147  0.13169751     0.08800
Cu176      Cu  0.42843294  0.36837390  0.98756264     0.44200
Cu177      Cu  0.42037113  0.36772590  0.10883961     0.42000
Cu178      Cu  0.39301047  0.40357987  0.03594684     0.43900
N179        N  0.41347728  0.39038415  0.95000436    -0.34800
N180        N  0.40054369  0.40359754  0.96775083    -0.29100
C181        C  0.39426589  0.41644135  0.93514251    -0.05200
C182        C  0.40395519  0.41118370  0.89505123     0.07000
C183        C  0.41581918  0.39443865  0.90572522     0.00800
H184        H  0.38377519  0.42893419  0.94042077     0.08500
H185        H  0.42548729  0.38580133  0.88304367     0.07600
N186        N  0.38889170  0.40120227  0.10534164    -0.36300
N187        N  0.39882940  0.38841154  0.13193149    -0.28400
C188        C  0.39344778  0.39198563  0.17521875    -0.03700
C189        C  0.37954159  0.40783096  0.17576408     0.04900
C190        C  0.37686695  0.41312722  0.13092103     0.03000
H191        H  0.39951508  0.38389837  0.20410136     0.08100
H192        H  0.36750713  0.42535947  0.11796295     0.07000
N193        N  0.64234284  0.18678666  0.22791423    -0.27400
N194        N  0.64655532  0.17923708  0.26823214    -0.35300
C195        C  0.63829186  0.16059504  0.27144107     0.00900
C196        C  0.62820781  0.15601083  0.23127465     0.06900
C197        C  0.63085091  0.17329667  0.20483095    -0.06200
H198        H  0.64010630  0.15084170  0.30060829     0.07600
H199        H  0.62505039  0.17611791  0.17126243     0.08800
Cu200      Cu  0.66364700  0.19412995  0.31727281     0.44200
Cu201      Cu  0.65519384  0.21351581  0.20348237     0.42000
Cu202      Cu  0.68720054  0.24088395  0.28417528     0.43900
N203        N  0.68129861  0.21159463  0.36081451    -0.34800
N204        N  0.69024715  0.22874810  0.34844097    -0.29100
C205        C  0.70162961  0.23581463  0.38304881    -0.05200
C206        C  0.69940728  0.22262539  0.41913214     0.07000
C207        C  0.68647711  0.20741333  0.40385710     0.00800
H208        H  0.71092556  0.24944211  0.38192483     0.08500
H209        H  0.68165890  0.19400835  0.42222151     0.07600
N210        N  0.68583115  0.24743697  0.21572830    -0.36300
N211        N  0.67473711  0.23720665  0.18591331    -0.28400
C212        C  0.68018264  0.24309301  0.14392023    -0.03700
C213        C  0.69514159  0.25796766  0.14767160     0.04900
C214        C  0.69835329  0.26024002  0.19363763     0.03000
H215        H  0.67451169  0.23627162  0.11298948     0.08100
H216        H  0.71015759  0.26927255  0.20973363     0.07000
N217        N  0.63936463  0.97813785  0.14971623    -0.27400
N218        N  0.63712327  0.99455958  0.12452542    -0.35300
C219        C  0.65108273  0.99437865  0.09132490     0.00900
C220        C  0.66292478  0.97711474  0.09574927     0.06900
C221        C  0.65490958  0.96698142  0.13294420    -0.06200
H222        H  0.65334999  0.00666098  0.06748893     0.07600
H223        H  0.66026052  0.95291158  0.14761021     0.08800
Cu224      Cu  0.61812126  0.01852181  0.13995587     0.44200
Cu225      Cu  0.62240659  0.97327548  0.20811195     0.42000
Cu226      Cu  0.58543930  0.01388047  0.23497808     0.43900
N227        N  0.60392201  0.04313099  0.16941847    -0.34800
N228        N  0.59128871  0.04152805  0.20406022    -0.29100
C229        C  0.58734781  0.06022595  0.22039523    -0.05200
C230        C  0.59869023  0.07429939  0.19577735     0.07000
C231        C  0.60865999  0.06278007  0.16318245     0.00800
H232        H  0.57783396  0.06301260  0.24962801     0.08500
H233        H  0.62012119  0.06805465  0.13945743     0.07600
N234        N  0.58828471  0.98688323  0.27048976    -0.36300
N235        N  0.60235650  0.97286078  0.26264440    -0.28400
C236        C  0.60071887  0.95823539  0.29420689    -0.03700
C237        C  0.58471975  0.96314637  0.32284834     0.04900
C238        C  0.57713347  0.98133034  0.30665445     0.03000
H239        H  0.61016350  0.94478340  0.29547301     0.08100
H240        H  0.56449831  0.98999352  0.32037191     0.07000
N241        N  0.76700775  0.97993590  0.96079295    -0.27400
N242        N  0.76038754  0.99890056  0.95964385    -0.35300
C243        C  0.74211148  0.99991076  0.98016671     0.00900
C244        C  0.73697489  0.98066228  0.99488316     0.06900
C245        C  0.75315036  0.96832347  0.98257502    -0.06200
H246        H  0.73307139  0.01360164  0.98351376     0.07600
H247        H  0.75442070  0.95207875  0.98753690     0.08800
Cu248      Cu  0.77577619  0.02250918  0.92860119     0.44200
Cu249      Cu  0.79353340  0.97102723  0.92840027     0.42000
Cu250      Cu  0.82370084  0.01206711  0.87526292     0.43900
N251        N  0.79274386  0.04429777  0.89508456    -0.34800
N252        N  0.81062077  0.04074160  0.87580885    -0.29100
C253        C  0.81735515  0.05796365  0.85610458    -0.05200
C254        C  0.80282931  0.07302954  0.86302663     0.07000
C255        C  0.78756125  0.06376144  0.88819971     0.00800
H256        H  0.83177970  0.05934023  0.83839797     0.08500
H257        H  0.77345991  0.07057073  0.89998194     0.07600
N258        N  0.83022475  0.98131674  0.87020870    -0.36300
N259        N  0.81891969  0.96659580  0.88783046    -0.28400
C260        C  0.82548558  0.94864000  0.87175040    -0.03700
C261        C  0.84196628  0.95217544  0.84357319     0.04900
C262        C  0.84449202  0.97302982  0.84313424     0.03000
H263        H  0.81807546  0.93422017  0.87803549     0.08100
H264        H  0.85486050  0.98163672  0.82191866     0.07000
N265        N  0.78472321  0.18851174  0.79674135    -0.27400
N266        N  0.78291772  0.18046575  0.75592064    -0.35300
C267        C  0.78847905  0.16080573  0.75776517     0.00900
C268        C  0.79392332  0.15616318  0.80198309     0.06900
C269        C  0.79187452  0.17435320  0.82532930    -0.06200
H270        H  0.78729159  0.15031712  0.72961442     0.07600
H271        H  0.79446596  0.17709014  0.86092216     0.08800
Cu272      Cu  0.77059244  0.19588132  0.70107642     0.44200
Cu273      Cu  0.77236232  0.21625589  0.81527275     0.42000
Cu274      Cu  0.74269973  0.24183792  0.73083013     0.43900
N275        N  0.75546641  0.21396872  0.65431480    -0.34800
N276        N  0.74493646  0.23038698  0.66551712    -0.29100
C277        C  0.73514892  0.23735558  0.62868288    -0.05200
C278        C  0.73998714  0.22496080  0.59238724     0.07000
C279        C  0.75284653  0.21023687  0.60985150     0.00800
H280        H  0.72460865  0.25002585  0.62871231     0.08500
H281        H  0.75875266  0.19704792  0.59225624     0.07600
N282        N  0.74156601  0.24936954  0.79901189    -0.36300
N283        N  0.75242254  0.23979290  0.83008469    -0.28400
C284        C  0.74618988  0.24583599  0.87135182    -0.03700
C285        C  0.73091893  0.26016331  0.86601150     0.04900
C286        C  0.72833324  0.26200406  0.81970257     0.03000
H287        H  0.75142794  0.23929606  0.90284464     0.08100
H288        H  0.71655705  0.27057464  0.80250303     0.07000
N289        N  0.26912220  0.97258087  0.25947554    -0.27400
N290        N  0.28804224  0.97334716  0.27528539    -0.35300
C291        C  0.28994167  0.95981272  0.30903087     0.00900
C292        C  0.27142360  0.94982427  0.31460952     0.06900
C293        C  0.25849315  0.95848797  0.28282999    -0.06200
H294        H  0.30408385  0.95675889  0.32681284     0.07600
H295        H  0.24260210  0.95475508  0.27671394     0.08800
Cu296      Cu  0.31140076  0.99045145  0.24656048     0.44200
Cu297      Cu  0.25912910  0.98994524  0.20509113     0.42000
Cu298      Cu  0.29914849  0.01619791  0.14269296     0.43900
N299        N  0.33338686  0.00214293  0.20304501    -0.34800
N300        N  0.32886364  0.01077406  0.16391970    -0.29100
C301        C  0.34623002  0.01378350  0.14036449    -0.05200
C302        C  0.36244121  0.00673081  0.16597608     0.07000
C303        C  0.35379038  0.99961595  0.20564489     0.00800
H304        H  0.34691637  0.01988237  0.10639340     0.08500
H305        H  0.36158592  0.99187533  0.23292922     0.07600
N306        N  0.26817181  0.01938578  0.12940689    -0.36300
N307        N  0.25354867  0.00955045  0.15139953    -0.28400
C308        C  0.23528008  0.01481166  0.13391072    -0.03700
C309        C  0.23861961  0.02884613  0.09986601     0.04900
C310        C  0.25961542  0.03128964  0.09771870     0.03000
H311        H  0.22065670  0.00900259  0.14537594     0.08100
H312        H  0.26808312  0.04078766  0.07437638     0.07000
N313        N  0.47878844  0.98428757  0.11827875    -0.27400
N314        N  0.47395843  0.98588435  0.07494983    -0.35300
C315        C  0.45481657  0.99321077  0.07161047     0.00900
C316        C  0.44718343  0.99642365  0.11485008     0.06900
C317        C  0.46284229  0.99050344  0.14350953    -0.06200
H318        H  0.44654533  0.99473069  0.04006653     0.07600
H319        H  0.46208746  0.98903595  0.17994267     0.08800
Cu320      Cu  0.49149889  0.97418184  0.02232236     0.44200
Cu321      Cu  0.50500880  0.97026862  0.14226410     0.42000
Cu322      Cu  0.53436678  0.94385957  0.05762580     0.43900
N323        N  0.50848739  0.95626392  0.97821412    -0.34800
N324        N  0.52400736  0.94491257  0.99162927    -0.29100
C325        C  0.53060477  0.93358651  0.95666464    -0.05200
C326        C  0.51855731  0.93787865  0.91943745     0.07000
C327        C  0.50485440  0.95251926  0.93411481     0.00800
H328        H  0.54304223  0.92278303  0.95850165     0.08500
H329        H  0.49259775  0.95928761  0.91469947     0.07600
N330        N  0.54068740  0.94262833  0.12606689    -0.36300
N331        N  0.53002684  0.95222710  0.15751961    -0.28400
C332        C  0.53758508  0.94739904  0.19854231    -0.03700
C333        C  0.55368107  0.93397788  0.19237756     0.04900
C334        C  0.55527483  0.93148204  0.14601629     0.03000
H335        H  0.53177568  0.95324308  0.23029582     0.08100
H336        H  0.56596184  0.92183258  0.12807444     0.07000
N337        N  0.48786040  0.85066948  0.54590428    -0.27400
N338        N  0.48468403  0.84784658  0.58965047    -0.35300
C339        C  0.46646168  0.83867700  0.59541580     0.00900
C340        C  0.45763609  0.83585278  0.55335431     0.06900
C341        C  0.47175497  0.84336071  0.52268632    -0.06200
H342        H  0.45916769  0.83639006  0.62792269     0.07600
H343        H  0.46961862  0.84519839  0.48659852     0.08800
Cu344      Cu  0.50203764  0.86156461  0.63970419     0.44200
Cu345      Cu  0.51086696  0.86899956  0.52033311     0.42000
Cu346      Cu  0.53973226  0.89832222  0.60236561     0.43900
N347        N  0.51640018  0.88203643  0.68250277    -0.34800
N348        N  0.53008442  0.89554940  0.66891899    -0.29100
C349        C  0.53467276  0.90796843  0.70371467    -0.05200
C350        C  0.52311070  0.90213971  0.74081941     0.07000
C351        C  0.51192222  0.88548428  0.72626160     0.00800
H352        H  0.54530994  0.92056142  0.70172588     0.08500
H353        H  0.50060581  0.87709544  0.74545450     0.07600
N354        N  0.54249515  0.90189828  0.53294290    -0.36300
N355        N  0.53159860  0.89150952  0.50306256    -0.28400
C356        C  0.53550284  0.89872598  0.46137133    -0.03700
C357        C  0.54950974  0.91442157  0.46527334     0.04900
C358        C  0.55378674  0.91587609  0.51101034     0.03000
H359        H  0.52854779  0.89304222  0.43059359     0.08100
H360        H  0.56382514  0.92676172  0.52729817     0.07000
N361        N  0.27151832  0.85696460  0.48463733    -0.27400
N362        N  0.28884448  0.85550974  0.46168147    -0.35300
C363        C  0.28892967  0.86927879  0.42824150     0.00900
C364        C  0.27080250  0.87994297  0.42986701     0.06900
C365        C  0.26007588  0.87186842  0.46616333    -0.06200
H366        H  0.30189549  0.87234374  0.40645367     0.07600
H367        H  0.24568780  0.87724150  0.47977801     0.08800
Cu368      Cu  0.31355773  0.83810224  0.48105213     0.44200
Cu369      Cu  0.26597079  0.83996557  0.54298821     0.42000
Cu370      Cu  0.31096352  0.81164020  0.58480512     0.43900
N371        N  0.33900390  0.82583586  0.51185771    -0.34800
N372        N  0.33833169  0.81656776  0.55139127    -0.29100
C373        C  0.35758297  0.81317571  0.56571868    -0.05200
C374        C  0.37104437  0.82052855  0.53320232     0.07000
C375        C  0.35860447  0.82849035  0.49967758     0.00800
H376        H  0.36139502  0.80721033  0.59874461     0.08500
H377        H  0.36342519  0.83671396  0.46980790     0.07600
N378        N  0.28185410  0.80981424  0.61207385    -0.36300
N379        N  0.26566879  0.82014083  0.59815999    -0.28400
C380        C  0.24961063  0.81535563  0.62481039    -0.03700
C381        C  0.25614917  0.80163678  0.65725836     0.04900
C382        C  0.27655091  0.79827110  0.64760181     0.03000
H383        H  0.23439010  0.82160428  0.62121646     0.08100
H384        H  0.28687733  0.78810870  0.66502301     0.07000
N385        N  0.29907158  0.68005733  0.43904438    -0.27400
N386        N  0.30315836  0.67562199  0.39625900    -0.35300
C387        C  0.31236487  0.65738122  0.39439589     0.00900
C388        C  0.31395182  0.64979254  0.43791195     0.06900
C389        C  0.30559452  0.66471127  0.46542954    -0.06200
H390        H  0.31652574  0.64965839  0.36335108     0.07600
H391        H  0.30383135  0.66426444  0.50182622     0.08800
Cu392      Cu  0.29363643  0.69274341  0.34115311     0.44200
Cu393      Cu  0.28275584  0.70554869  0.45985305     0.42000
Cu394      Cu  0.26645632  0.73823661  0.36951234     0.43900
N395        N  0.27791449  0.70994712  0.29372713    -0.34800
N396        N  0.26782585  0.72663322  0.30477564    -0.29100
C397        C  0.25666388  0.73278396  0.26922488    -0.05200
C398        C  0.25993080  0.71937895  0.23400376     0.07000
C399        C  0.27358989  0.70513598  0.25041555     0.00800
H400        H  0.24608068  0.74541798  0.26980175     0.08500
H401        H  0.27882446  0.69155219  0.23327635     0.07600
N402        N  0.25950108  0.74349114  0.43651462    -0.36300
N403        N  0.26458352  0.73109477  0.46980695    -0.28400
C404        C  0.25466795  0.73691262  0.50765731    -0.03700
C405        C  0.24308952  0.75395679  0.49761919     0.04900
C406        C  0.24645702  0.75758219  0.45218612     0.03000
H407        H  0.25508555  0.72880242  0.53948641     0.08100
H408        H  0.23871477  0.76862211  0.43119194     0.07000
N409        N  0.28814032  0.47552247  0.48655665    -0.27400
N410        N  0.29469542  0.48821563  0.51820987    -0.35300
C411        C  0.28096292  0.48879663  0.55197916     0.00900
C412        C  0.26501956  0.47590803  0.54104912     0.06900
C413        C  0.26991328  0.46783736  0.49921217    -0.06200
H414        H  0.28177057  0.49900638  0.58070375     0.07600
H415        H  0.26062339  0.45772657  0.47880312     0.08800
Cu416      Cu  0.31883217  0.50820649  0.51007923     0.44200
Cu417      Cu  0.30356040  0.47040683  0.42646397     0.42000
Cu418      Cu  0.34244657  0.50805243  0.40176511     0.43900
N419        N  0.33286224  0.53360148  0.48314870    -0.34800
N420        N  0.34046728  0.53393049  0.44176525    -0.29100
C421        C  0.34328608  0.55338123  0.42919096    -0.05200
C422        C  0.33738312  0.56600999  0.46462992     0.07000
C423        C  0.33087395  0.55277652  0.49825419     0.00800
H424        H  0.34723019  0.55791916  0.39511687     0.08500
H425        H  0.32334996  0.55678568  0.52965309     0.07600
N426        N  0.33949623  0.48074135  0.36714279    -0.36300
N427        N  0.32454579  0.46756219  0.37443912    -0.28400
C428        C  0.32643123  0.45195986  0.34528835    -0.03700
C429        C  0.34355540  0.45533674  0.31889548     0.04900
C430        C  0.35154713  0.47364525  0.33379891     0.03000
H431        H  0.31639441  0.43888567  0.34419080     0.08100
H432        H  0.36503791  0.48132342  0.32109108     0.07000
N433        N  0.16781883  0.68140167  0.87206774    -0.27400
N434        N  0.16528402  0.67692188  0.91526946    -0.35300
C435        C  0.15729487  0.65812523  0.91852897     0.00900
C436        C  0.15463546  0.65036850  0.87519843     0.06900
C437        C  0.16165307  0.66557467  0.84669826    -0.06200
H438        H  0.15483685  0.65021153  0.95016078     0.07600
H439        H  0.16371040  0.66467503  0.81042374     0.08800
Cu440      Cu  0.17675345  0.69484730  0.96708668     0.44200
Cu441      Cu  0.18180700  0.70770037  0.84952070     0.42000
Cu442      Cu  0.20239267  0.74175512  0.93333921     0.43900
N443        N  0.19554650  0.71187871  0.00902054    -0.34800
N444        N  0.20505796  0.72874306  0.99659667    -0.29100
C445        C  0.21796968  0.73450894  0.02966166    -0.05200
C446        C  0.21660548  0.72050520  0.06437186     0.07000
C447        C  0.20206860  0.70653939  0.05044369     0.00800
H448        H  0.22790269  0.74767218  0.02803281     0.08500
H449        H  0.19729248  0.69295826  0.06821446     0.07600
N450        N  0.20278131  0.74783439  0.86485470    -0.36300
N451        N  0.19581781  0.73500261  0.83403231    -0.28400
C452        C  0.20056754  0.74205214  0.79269121    -0.03700
C453        C  0.21082901  0.76037029  0.79767524     0.04900
C454        C  0.21206409  0.76346321  0.84398083     0.03000
H455        H  0.19784433  0.73378007  0.76157897     0.08100
H456        H  0.21998001  0.77566743  0.86131971     0.07000
N457        N  0.16952692  0.47654751  0.70158147    -0.27400
N458        N  0.17034809  0.49608387  0.69126121    -0.35300
C459        C  0.18320191  0.49869214  0.65623409     0.00900
C460        C  0.19087594  0.47991864  0.64395827     0.06900
C461        C  0.18203696  0.46623418  0.67364968    -0.06200
H462        H  0.18803200  0.51334019  0.64340001     0.07600
H463        H  0.18544983  0.45019897  0.67660856     0.08800
Cu464      Cu  0.15761919  0.51880680  0.73054592     0.44200
Cu465      Cu  0.15362499  0.46519329  0.75672970     0.42000
Cu466      Cu  0.13285609  0.50315266  0.83360944     0.43900
N467        N  0.14803034  0.53897080  0.77987884    -0.34800
N468        N  0.13932341  0.53328381  0.81824567    -0.29100
C469        C  0.13656264  0.54978004  0.84456809    -0.05200
C470        C  0.14396064  0.56658829  0.82156737     0.07000
C471        C  0.15094884  0.55920071  0.78057439     0.00800
H472        H  0.12997206  0.54949577  0.87817682     0.08500
H473        H  0.15838132  0.56777869  0.75397690     0.07600
N474        N  0.12924777  0.47200520  0.84202594    -0.36300
N475        N  0.13704160  0.45817346  0.81445117    -0.28400
C476        C  0.13152159  0.43956642  0.82893041    -0.03700
C477        C  0.11973445  0.44177928  0.86758568     0.04900
C478        C  0.11846937  0.46255888  0.87459994     0.03000
H479        H  0.13502106  0.42555132  0.81134809     0.08100
H480        H  0.10995187  0.47027691  0.90092291     0.07000
N481        N  0.12406906  0.97077064  0.95392722    -0.27400
N482        N  0.10862201  0.97557863  0.92711732    -0.35300
C483        C  0.10680910  0.96132304  0.89478858     0.00900
C484        C  0.12133670  0.94636140  0.90226999     0.06900
C485        C  0.13226232  0.95312411  0.93964489    -0.06200
H486        H  0.09539134  0.96178307  0.86837239     0.07600
H487        H  0.14479372  0.94543065  0.95628160     0.08800
Cu488      Cu  0.08779280  0.99867714  0.93978316     0.44200
Cu489      Cu  0.13308305  0.98811006  0.00919472     0.42000
Cu490      Cu  0.09832904  0.02885012  0.03679582     0.43900
N491        N  0.06537797  0.01535700  0.97279065    -0.34800
N492        N  0.06930833  0.02606347  0.00964742    -0.29100
C493        C  0.05160596  0.03041685  0.03066016    -0.05200
C494        C  0.03565831  0.02213036  0.00582761     0.07000
C495        C  0.04500248  0.01275489  0.96922048     0.00800
H496        H  0.05059172  0.03686406  0.06432470     0.08500
H497        H  0.03780290  0.00233185  0.94568944     0.07600
N498        N  0.12720515  0.02596973  0.06462502    -0.36300
N499        N  0.13960758  0.01052624  0.05652078    -0.28400
C500        C  0.15670372  0.01281939  0.08149721    -0.03700
C501        C  0.15496012  0.03066865  0.10601050     0.04900
C502        C  0.13613554  0.03862200  0.09438702     0.03000
H503        H  0.16960431  0.00252859  0.08099805     0.08100
H504        H  0.12927676  0.05244388  0.10722346     0.07000
N505        N  0.92831930  0.97563570  0.06807771    -0.27400
N506        N  0.93272751  0.97837918  0.11128342    -0.35300
C507        C  0.95037797  0.98881842  0.11450072     0.00900
C508        C  0.95783903  0.99228299  0.07115921     0.06900
C509        C  0.94320146  0.98393263  0.04265318    -0.06200
H510        H  0.95728177  0.99319779  0.14628217     0.07600
H511        H  0.94371520  0.98319611  0.00606607     0.08800
Cu512      Cu  0.91638416  0.96493277  0.16357302     0.44200
Cu513      Cu  0.90285455  0.95989740  0.04585989     0.42000
Cu514      Cu  0.87213862  0.93488999  0.13166612     0.43900
N515        N  0.90111143  0.94549628  0.20745305    -0.34800
N516        N  0.88489708  0.93460852  0.19589648    -0.29100
C517        C  0.87988846  0.92221793  0.23037214    -0.05200
C518        C  0.89387269  0.92514205  0.26505368     0.07000
C519        C  0.90689703  0.94024812  0.24951746     0.00800
H520        H  0.86723863  0.91159133  0.22966147     0.08500
H521        H  0.92022469  0.94628527  0.26668928     0.07600
N522        N  0.86541554  0.93426941  0.06309765    -0.36300
N523        N  0.87676259  0.94328099  0.03193480    -0.28400
C524        C  0.86970252  0.93821187  0.99073877    -0.03700
C525        C  0.85304945  0.92542589  0.99611161     0.04900
C526        C  0.85082793  0.92317737  0.04246404     0.03000
H527        H  0.87684313  0.94264704  0.95917953     0.08100
H528        H  0.84041581  0.91303682  0.05986029     0.07000
N529        N  0.94243137  0.83645317  0.63121687    -0.27400
N530        N  0.94420786  0.83266620  0.58736879    -0.35300
C531        C  0.96067927  0.82084127  0.58057727     0.00900
C532        C  0.96960616  0.81681022  0.62206200     0.06900
C533        C  0.95766238  0.82703589  0.65335312    -0.06200
H534        H  0.96654985  0.81667412  0.54758189     0.07600
H535        H  0.96082379  0.82897366  0.68906528     0.08800
Cu536      Cu  0.92673488  0.84616693  0.53713824     0.44200
Cu537      Cu  0.92162955  0.85658329  0.65937150     0.42000
Cu538      Cu  0.88904115  0.88070253  0.57782457     0.43900
N539        N  0.91015992  0.86504628  0.49465259    -0.34800
N540        N  0.89629337  0.87784582  0.51032006    -0.29100
C541        C  0.88986767  0.88985513  0.47654232    -0.05200
C542        C  0.90024306  0.88443208  0.43765347     0.07000
C543        C  0.91284349  0.86848420  0.45008772     0.00800
H544        H  0.87908508  0.90220035  0.48047636     0.08500
H545        H  0.92398249  0.86081890  0.42901696     0.07600
N546        N  0.88714316  0.88593351  0.64639611    -0.36300
N547        N  0.89943846  0.87764757  0.67666094    -0.28400
C548        C  0.89497475  0.88531911  0.71777123    -0.03700
C549        C  0.87889613  0.89880637  0.71289840     0.04900
C550        C  0.87447696  0.89896559  0.66720855     0.03000
H551        H  0.90280802  0.88137600  0.74880410     0.08100
H552        H  0.86328011  0.90829324  0.65007688     0.07000
N553        N  0.13964924  0.84730009  0.75249229    -0.27400
N554        N  0.12170548  0.84225371  0.76991922    -0.35300
C555        C  0.11675439  0.85554801  0.80249180     0.00900
C556        C  0.13206676  0.87004810  0.80584470     0.06900
C557        C  0.14645603  0.86426805  0.77354958    -0.06200
H558        H  0.10222858  0.85548348  0.82010920     0.07600
H559        H  0.16000714  0.87260809  0.76356246     0.08800
Cu560      Cu  0.10168443  0.82110197  0.74295211     0.44200
Cu561      Cu  0.15239634  0.83164577  0.69768341     0.42000
Cu562      Cu  0.11627235  0.79639554  0.64240127     0.43900
N563        N  0.08097115  0.80552938  0.70291307    -0.34800
N564        N  0.08636321  0.79662378  0.66466386    -0.29100
C565        C  0.06943805  0.79122096  0.64169788    -0.05200
C566        C  0.05256441  0.79720511  0.66669095     0.07000
C567        C  0.06044409  0.80606169  0.70545370     0.00800
H568        H  0.06943460  0.78510489  0.60766032     0.08500
H569        H  0.05193793  0.81424707  0.73109030     0.07600
N570        N  0.14700543  0.79852494  0.62696113    -0.36300
N571        N  0.16014435  0.81127083  0.64601913    -0.28400
C572        C  0.17891262  0.80760161  0.62896624    -0.03700
C573        C  0.17751506  0.79150347  0.59864531     0.04900
C574        C  0.15699406  0.78644420  0.59772008     0.03000
H575        H  0.19270437  0.81544212  0.63941646     0.08100
H576        H  0.14976589  0.77468102  0.57765922     0.07000
N577        N  0.23893021  0.34658442  0.19367092    -0.27400
N578        N  0.24050147  0.32794283  0.17706074    -0.35300
C579        C  0.22624017  0.32517103  0.14494867     0.00900
C580        C  0.21495929  0.34275991  0.14122436     0.06900
C581        C  0.22330455  0.35608250  0.17266019    -0.06200
H582        H  0.22342203  0.31091948  0.12764467     0.07600
H583        H  0.21801660  0.37125110  0.18063979     0.08800
Cu584      Cu  0.25879337  0.30528337  0.20336227     0.44200
Cu585      Cu  0.25769885  0.35753840  0.24563219     0.42000
Cu586      Cu  0.28906605  0.31771517  0.29763512     0.43900
N587        N  0.27161045  0.28338341  0.24449071    -0.34800
N588        N  0.28263558  0.28801246  0.28046109    -0.29100
C589        C  0.28592203  0.27107393  0.30481920    -0.05200
C590        C  0.27650628  0.25493360  0.28291114     0.07000
C591        C  0.26753845  0.26336995  0.24483531     0.00800
H592        H  0.29304730  0.27089311  0.33784044     0.08500
H593        H  0.25754342  0.25579304  0.22092740     0.07600
N594        N  0.29192775  0.34832920  0.31137476    -0.36300
N595        N  0.28035440  0.36290546  0.29420879    -0.28400
C596        C  0.28652832  0.38087994  0.31163000    -0.03700
C597        C  0.30274566  0.37724884  0.34074079     0.04900
C598        C  0.30579038  0.35654261  0.33948689     0.03000
H599        H  0.28006374  0.39549265  0.30293477     0.08100
H600        H  0.31725153  0.34801430  0.35780463     0.07000
N601        N  0.24777011  0.14249179  0.33991220    -0.27400
N602        N  0.24584748  0.14796852  0.38279571    -0.35300
C603        C  0.25284145  0.16711167  0.38773755     0.00900
C604        C  0.25948726  0.17387236  0.34594772     0.06900
C605        C  0.25597330  0.15795337  0.31643519    -0.06200
H606        H  0.25154370  0.17600316  0.41846072     0.07600
H607        H  0.25761550  0.15821924  0.27997934     0.08800
Cu608      Cu  0.23020915  0.13067982  0.43010624     0.44200
Cu609      Cu  0.23538521  0.11623908  0.31280395     0.42000
Cu610      Cu  0.20097749  0.08804906  0.38454360     0.43900
N611        N  0.21105478  0.11240220  0.46844811    -0.34800
N612        N  0.20012704  0.09715004  0.45190454    -0.29100
C613        C  0.18882120  0.08903846  0.48545067    -0.05200
C614        C  0.19306845  0.09951088  0.52504419     0.07000
C615        C  0.20707258  0.11433109  0.51289261     0.00800
H616        H  0.17834636  0.07639990  0.48136292     0.08500
H617        H  0.21355719  0.12598431  0.53448509     0.07600
N618        N  0.20472868  0.08220948  0.31589263    -0.36300
N619        N  0.21755973  0.09240182  0.28976227    -0.28400
C620        C  0.21561607  0.08585515  0.24680112    -0.03700
C621        C  0.20068232  0.07090862  0.24572820     0.04900
C622        C  0.19428894  0.06885214  0.29022844     0.03000
H623        H  0.22419055  0.09185338  0.21845882     0.08100
H624        H  0.18230326  0.05895445  0.30271362     0.07000
N625        N  0.12025989  0.13191221  0.90360387    -0.27400
N626        N  0.11303090  0.13216712  0.86180158    -0.35300
C627        C  0.10117662  0.14864561  0.85643505     0.00900
C628        C  0.10120158  0.15955626  0.89652180     0.06900
C629        C  0.11321112  0.14832201  0.92589270    -0.06200
H630        H  0.09367223  0.15264914  0.82507879     0.07600
H631        H  0.11735522  0.15231877  0.96024962     0.08800
Cu632      Cu  0.12220799  0.11250674  0.81113390     0.44200
Cu633      Cu  0.14074315  0.11029051  0.92730264     0.42000
Cu634      Cu  0.16099404  0.07657552  0.84122319     0.43900
N635        N  0.13915624  0.09666563  0.76377688    -0.34800
N636        N  0.15368474  0.08366613  0.77488502    -0.29100
C637        C  0.16416035  0.07851748  0.73743016    -0.05200
C638        C  0.15579146  0.08872040  0.70086334     0.07000
C639        C  0.13999745  0.10015539  0.71897003     0.00800
H640        H  0.17773326  0.06911444  0.73730948     0.08500
H641        H  0.13105078  0.11159404  0.70173076     0.07600
N642        N  0.16781676  0.07410486  0.90947238    -0.36300
N643        N  0.16082290  0.08663404  0.94091941    -0.28400
C644        C  0.16909861  0.08156121  0.98105999    -0.03700
C645        C  0.18166022  0.06487440  0.97459019     0.04900
C646        C  0.18060926  0.06068848  0.92873962     0.03000
H647        H  0.16639561  0.08958082  0.01252269     0.08100
H648        H  0.18915626  0.04927481  0.91034150     0.07000
N649        N  0.11856923  0.33460102  0.97997154    -0.27400
N650        N  0.11608955  0.31855978  0.00640468    -0.35300
C651        C  0.13016974  0.31907013  0.03952288     0.00900
C652        C  0.14228397  0.33608613  0.03351492     0.06900
C653        C  0.13449125  0.34566373  0.99550717    -0.06200
H654        H  0.13215423  0.30731486  0.06472347     0.07600
H655        H  0.14024584  0.35937254  0.97975056     0.08800
Cu656      Cu  0.09593347  0.29491579  0.99331058     0.44200
Cu657      Cu  0.10057266  0.34007589  0.92308101     0.42000
Cu658      Cu  0.06379568  0.30036590  0.89639371     0.43900
N659        N  0.07967122  0.27091929  0.96542292    -0.34800
N660        N  0.06817293  0.27287652  0.92892894    -0.29100
C661        C  0.06353560  0.25429785  0.91286329    -0.05200
C662        C  0.07241821  0.23989570  0.94075458     0.07000
C663        C  0.08250526  0.25103158  0.97376551     0.00800
H664        H  0.05616876  0.25151441  0.88062408     0.08500
H665        H  0.09326440  0.24518625  0.99834018     0.07600
N666        N  0.06502780  0.32809201  0.86340941    -0.36300
N667        N  0.07889686  0.34227920  0.87161903    -0.28400
C668        C  0.07646260  0.35749088  0.84164640    -0.03700
C669        C  0.06004987  0.35279997  0.81355063     0.04900
C670        C  0.05332694  0.33395519  0.82842521     0.03000
H671        H  0.08650370  0.37052507  0.83948966     0.08100
H672        H  0.04111140  0.32485425  0.81412597     0.07000
N673        N  0.99089990  0.32932942  0.99503430    -0.27400
N674        N  0.98706697  0.32064500  0.03447399    -0.35300
C675        C  0.96826726  0.31231059  0.03335805     0.00900
C676        C  0.95969436  0.31583024  0.99114792     0.06900
C677        C  0.97451204  0.32685531  0.96793229    -0.06200
H678        H  0.96102071  0.30500285  0.06199771     0.07600
H679        H  0.97310288  0.33369814  0.93483527     0.08800
Cu680      Cu  0.00585260  0.32343108  0.09068992     0.44200
Cu681      Cu  0.01772554  0.34536243  0.98097166     0.42000
Cu682      Cu  0.05442059  0.34749567  0.07234256     0.43900
N683        N  0.02374425  0.33509513  0.14251918    -0.34800
N684        N  0.04144008  0.34427499  0.13544629    -0.29100
C685        C  0.04691908  0.35443634  0.17303233    -0.05200
C686        C  0.03209886  0.35132729  0.20589374     0.07000
C687        C  0.01765661  0.33890612  0.18514646     0.00800
H688        H  0.05951350  0.36510868  0.17428922     0.08500
H689        H  0.00291934  0.33443908  0.19862083     0.07600
N690        N  0.06003412  0.35910374  0.00890356    -0.36300
N691        N  0.04622134  0.35954559  0.97620119    -0.28400
C692        C  0.05309684  0.37176510  0.94297981    -0.03700
C693        C  0.07207961  0.37932057  0.95564617     0.04900
C694        C  0.07608571  0.37078594  0.99730779     0.03000
H695        H  0.04452359  0.37558990  0.91284465     0.08100
H696        H  0.08889683  0.37419869  0.01928750     0.07000
N697        N  0.78183939  0.34467329  0.85513429    -0.27400
N698        N  0.80020773  0.34346945  0.83651152    -0.35300
C699        C  0.80136917  0.35677562  0.80211863     0.00900
C700        C  0.78283400  0.36682195  0.79878362     0.06900
C701        C  0.77087331  0.35889555  0.83323314    -0.06200
H702        H  0.81514816  0.35989496  0.78297720     0.07600
H703        H  0.75560999  0.36364093  0.84273494     0.08800
Cu704      Cu  0.82393052  0.32631456  0.86306069     0.44200
Cu705      Cu  0.77314251  0.32786938  0.91133113     0.42000
Cu706      Cu  0.81128647  0.29342800  0.95669929     0.43900
N707        N  0.84570656  0.31229909  0.90336721    -0.34800
N708        N  0.84110512  0.30027065  0.93771601    -0.29100
C709        C  0.85838060  0.29568805  0.96028066    -0.05200
C710        C  0.87463296  0.30554346  0.93949820     0.07000
C711        C  0.86601788  0.31568220  0.90316187     0.00800
H712        H  0.85889871  0.28638107  0.99040221     0.08500
H713        H  0.87378950  0.32577757  0.87988334     0.07600
N714        N  0.78096638  0.29394044  0.97765856    -0.36300
N715        N  0.76747873  0.30743361  0.96328448    -0.28400
C716        C  0.74985067  0.30487728  0.98613831    -0.03700
C717        C  0.75214752  0.28862130  0.01522004     0.04900
C718        C  0.77211876  0.28216911  0.00935265     0.03000
H719        H  0.73628310  0.31403728  0.98155363     0.08100
H720        H  0.77981901  0.27016295  0.02760556     0.07000
N721        N  0.98151851  0.46057554  0.54633834    -0.27400
N722        N  0.97890002  0.46062393  0.50191982    -0.35300
C723        C  0.96223714  0.47173936  0.49189591     0.00900
C724        C  0.95406978  0.47912965  0.53183372     0.06900
C725        C  0.96664345  0.47170605  0.56558465    -0.06200
H726        H  0.95530170  0.47247283  0.45867597     0.07600
H727        H  0.96378023  0.47236717  0.60165076     0.08800
Cu728      Cu  0.99479015  0.44187442  0.45781469     0.44200
Cu729      Cu  0.00143406  0.44141194  0.58048954     0.42000
Cu730      Cu  0.02818297  0.40538985  0.51164810     0.43900
N731        N  0.00998629  0.41899429  0.42320829    -0.34800
N732        N  0.02249564  0.40601035  0.44309107    -0.29100
C733        C  0.02917810  0.39249618  0.41240167    -0.05200
C734        C  0.02022367  0.39696851  0.37131128     0.07000
C735        C  0.00825774  0.41396611  0.37919556     0.00800
H736        H  0.03921052  0.37986785  0.41986484     0.08500
H737        H  0.99883927  0.42196107  0.35496043     0.07600
N738        N  0.02817799  0.40430618  0.58132999    -0.36300
N739        N  0.01844049  0.41761018  0.60699443    -0.28400
C740        C  0.02062002  0.41220876  0.65062739    -0.03700
C741        C  0.03203894  0.39448477  0.65231896     0.04900
C742        C  0.03675137  0.39006013  0.60773292     0.03000
H743        H  0.01405600  0.42035424  0.67897942     0.08100
H744        H  0.04585313  0.37751960  0.59526594     0.07000
N745        N  0.77773299  0.46584328  0.64811299    -0.27400
N746        N  0.79575821  0.46697112  0.66832211    -0.35300
C747        C  0.79718441  0.45210742  0.69921323     0.00900
C748        C  0.77922995  0.44105607  0.69859258     0.06900
C749        C  0.76723355  0.44998271  0.66549935    -0.06200
H750        H  0.81079407  0.44879810  0.71870904     0.07600
H751        H  0.75236395  0.44492257  0.65386739     0.08800
Cu752      Cu  0.81916927  0.48603419  0.64792660     0.44200
Cu753      Cu  0.76939673  0.48573042  0.59657846     0.42000
Cu754      Cu  0.81071925  0.51951909  0.55550185     0.43900
N755        N  0.84267350  0.49996798  0.61283271    -0.34800
N756        N  0.83978982  0.51211442  0.57787570    -0.29100
C757        C  0.85785113  0.51520846  0.55688058    -0.05200
C758        C  0.87276659  0.50437451  0.57979692     0.07000
C759        C  0.86253288  0.49496417  0.61505492     0.00800
H760        H  0.85957597  0.52290497  0.52475308     0.08500
H761        H  0.86870697  0.48368231  0.63788928     0.07600
N762        N  0.78019369  0.52181500  0.53712811    -0.36300
N763        N  0.76541303  0.50946594  0.55084003    -0.28400
C764        C  0.74776010  0.51509637  0.53105682    -0.03700
C765        C  0.75154513  0.53194318  0.50428375     0.04900
C766        C  0.77230608  0.53560452  0.50855889     0.03000
H767        H  0.73324056  0.50745870  0.53572480     0.08100
H768        H  0.78120751  0.54707321  0.49115442     0.07000
C769        C  0.89805102  0.47780854  0.56121310    -0.09300
C770        C  0.89323600  0.49857752  0.56301374     0.06900
C771        C  0.90818735  0.51299810  0.55032725    -0.03100
C772        C  0.92794316  0.50646550  0.53863486    -0.07500
C773        C  0.93282262  0.48570768  0.53875846     0.06000
C774        C  0.91756039  0.47131626  0.54891609    -0.02500
Br775      Br  0.92269967  0.44258616  0.54723469    -0.02200
H776        H  0.88658609  0.46651554  0.56975986     0.09900
H777        H  0.93964581  0.51760248  0.53068738     0.07900
Br778      Br  0.90289397  0.54166397  0.55154911    -0.02700
C779        C  0.77164863  0.40276017  0.79206702    -0.09300
C780        C  0.77859338  0.38493167  0.77083640     0.06900
C781        C  0.78312090  0.38532025  0.72414839    -0.03100
C782        C  0.78167831  0.40358137  0.70012613    -0.07500
C783        C  0.77603901  0.42162100  0.72210339     0.06000
C784        C  0.77063452  0.42109684  0.76818489    -0.02500
Br785      Br  0.76304434  0.44530251  0.80033314    -0.02200
H786        H  0.76816020  0.40270441  0.82793900     0.09900
H787        H  0.78596192  0.40390976  0.66467750     0.07900
Br788      Br  0.79154034  0.36144663  0.69170289    -0.02700
C789        C  0.00956953  0.36800333  0.26277807    -0.09300
C790        C  0.02948603  0.36276464  0.24887637     0.06900
C791        C  0.04623387  0.36883508  0.27609799    -0.03100
C792        C  0.04279199  0.38013434  0.31550549    -0.07500
C793        C  0.02293100  0.38555285  0.32877453     0.06000
C794        C  0.00617445  0.37912840  0.30239805    -0.02500
Br795      Br  0.97828929  0.38351800  0.32051088    -0.02200
H796        H  0.99644388  0.36350305  0.24274535     0.09900
H797        H  0.05575343  0.38465453  0.33612519     0.07900
Br798      Br  0.07404631  0.36120009  0.26380684    -0.02700
C799        C  0.92274417  0.31250545  0.01072412    -0.09300
C800        C  0.93814489  0.31174577  0.97746778     0.06900
C801        C  0.93241928  0.30764068  0.93221682    -0.03100
C802        C  0.91169947  0.30548233  0.92094466    -0.07500
C803        C  0.89632635  0.30670694  0.95406192     0.06000
C804        C  0.90206898  0.30999511  0.99958872    -0.02500
Br805      Br  0.88259925  0.31304896  0.04787038    -0.02200
H806        H  0.92668458  0.31575217  0.04560962     0.09900
H807        H  0.90756416  0.30258806  0.88598554     0.07900
Br808      Br  0.95195427  0.30332313  0.88460829    -0.02700
C809        C  0.04570813  0.39483790  0.73039635    -0.09300
C810        C  0.03872713  0.38349698  0.69331674     0.06900
C811        C  0.03818302  0.36210995  0.69653888    -0.03100
C812        C  0.04518388  0.35256190  0.73589061    -0.07500
C813        C  0.05264722  0.36388447  0.77286004     0.06000
C814        C  0.05253337  0.38533006  0.76985211    -0.02500
Br815      Br  0.05987434  0.40290649  0.81873880    -0.02200
H816        H  0.04589647  0.41129634  0.72866679     0.09900
H817        H  0.04482856  0.33611727  0.73735464     0.07900
Br818      Br  0.02668517  0.34511630  0.65008764    -0.02700
C819        C  0.08307715  0.18337827  0.94800035    -0.09300
C820        C  0.09210920  0.17974174  0.90555574     0.06900
C821        C  0.09326513  0.19581314  0.87392378    -0.03100
C822        C  0.08560519  0.21495486  0.88532940    -0.07500
C823        C  0.07722070  0.21871681  0.92822861     0.06000
C824        C  0.07570664  0.20267703  0.95952636    -0.02500
Br825      Br  0.06347909  0.20631684  0.01803727    -0.02200
H826        H  0.08195817  0.17119829  0.97254072     0.09900
H827        H  0.08731206  0.22730879  0.86137952     0.07900
Br828      Br  0.10734730  0.19374241  0.81697818    -0.02700
C829        C  0.16245246  0.09396679  0.57342703    -0.09300
C830        C  0.18377186  0.09625074  0.57004264     0.06900
C831        C  0.19574797  0.09542890  0.60968873    -0.03100
C832        C  0.18630812  0.09260326  0.65166452    -0.07500
C833        C  0.16494822  0.09080279  0.65528906     0.06000
C834        C  0.15296126  0.09145917  0.61558338    -0.02500
Br835      Br  0.12375788  0.08814981  0.61642133    -0.02200
H836        H  0.15309400  0.09443639  0.54316230     0.09900
H837        H  0.19575663  0.09213278  0.68178147     0.07900
Br838      Br  0.22510204  0.09697806  0.60870485    -0.02700
C839        C  0.15921610  0.34239560  0.10732423    -0.09300
C840        C  0.16077960  0.34117598  0.05998246     0.06900
C841        C  0.18026500  0.34243261  0.03957129    -0.03100
C842        C  0.19776376  0.34418877  0.06667876    -0.07500
C843        C  0.19620067  0.34490601  0.11401188     0.06000
C844        C  0.17671428  0.34432176  0.13435810    -0.02500
Br845      Br  0.17335660  0.34393329  0.19890607    -0.02200
H846        H  0.14435378  0.34112586  0.12341078     0.09900
H847        H  0.21273438  0.34410155  0.05084315     0.07900
Br848      Br  0.18412949  0.33933342  0.97550521    -0.02700
C849        C  0.25274552  0.22626676  0.29695374    -0.09300
C850        C  0.27257330  0.23436384  0.30107291     0.06900
C851        C  0.28792362  0.22265687  0.32228170    -0.03100
C852        C  0.28330593  0.20306529  0.33788955    -0.07500
C853        C  0.26358032  0.19499416  0.33280608     0.06000
C854        C  0.24815909  0.20682356  0.31279434    -0.02500
Br855      Br  0.22052951  0.19716080  0.30685566    -0.02200
H856        H  0.24065611  0.23516472  0.28166263     0.09900
H857        H  0.29524908  0.19392207  0.35305052     0.07900
Br858      Br  0.31569590  0.23188138  0.32796329    -0.02700
C859        C  0.00633719  0.81560710  0.60194286    -0.09300
C860        C  0.99037655  0.80881845  0.62992210     0.06900
C861        C  0.99494240  0.79628525  0.66721450    -0.03100
C862        C  0.01535145  0.79179882  0.67747677    -0.07500
C863        C  0.03134832  0.79947016  0.65076062     0.06000
C864        C  0.02670182  0.81120451  0.61220352    -0.02500
Br865      Br  0.04740495  0.82384424  0.57552708    -0.02200
H866        H  0.00307752  0.82546807  0.57350614     0.09900
H867        H  0.01878877  0.78269444  0.70704905     0.07900
Br868      Br  0.97392738  0.78476420  0.70474085    -0.02700
C869        C  0.90086333  0.92534842  0.34759361    -0.09300
C870        C  0.89544642  0.91421751  0.30876213     0.06900
C871        C  0.89255285  0.89295514  0.31250758    -0.03100
C872        C  0.89454753  0.88348026  0.35469448    -0.07500
C873        C  0.89931997  0.89478259  0.39351534     0.06000
C874        C  0.90281318  0.91585422  0.38966776    -0.02500
Br875      Br  0.91156818  0.93217336  0.44009818    -0.02200
H876        H  0.90356320  0.94157390  0.34526106     0.09900
H877        H  0.89220939  0.86720402  0.35728460     0.07900
Br878      Br  0.88737587  0.87563856  0.26137463    -0.02700
C879        C  0.17467137  0.06036054  0.13317444    -0.09300
C880        C  0.16960957  0.03976406  0.13810583     0.06900
C881        C  0.17675433  0.02905798  0.17616442    -0.03100
C882        C  0.18767537  0.03937471  0.20984777    -0.07500
C883        C  0.19192290  0.06024429  0.20606874     0.06000
C884        C  0.18584614  0.07064512  0.16647549    -0.02500
Br885      Br  0.19010746  0.09924899  0.15756658    -0.02200
H886        H  0.16926666  0.06868226  0.10388566     0.09900
H887        H  0.19231249  0.03117733  0.23992817     0.07900
Br888      Br  0.17026057  0.00097202  0.18637233    -0.02700
C889        C  0.11058054  0.89815183  0.83490666    -0.09300
C890        C  0.13019658  0.88968283  0.83052095     0.06900
C891        C  0.14688851  0.89981914  0.85093209    -0.03100
C892        C  0.14371517  0.91832890  0.87367127    -0.07500
C893        C  0.12401757  0.92683238  0.87758676     0.06000
C894        C  0.10726062  0.91609137  0.85893027    -0.02500
Br895      Br  0.07908572  0.92321645  0.86882347    -0.02200
H896        H  0.09744916  0.89059546  0.82009067     0.09900
H897        H  0.15673074  0.92600791  0.88872524     0.07900
Br898      Br  0.17391377  0.88847113  0.85233912    -0.02700
C899        C  0.01428839  0.00700370  0.06610476    -0.09300
C900        C  0.01531589  0.01669455  0.02394963     0.06900
C901        C  0.99730170  0.01916322  0.99855624    -0.03100
C902        C  0.97867653  0.01176261  0.01539336    -0.07500
C903        C  0.97766221  0.00144099  0.05710288     0.06000
C904        C  0.99587910  0.99906822  0.08249744    -0.02500
Br905      Br  0.99785093  0.98303043  0.13660150    -0.02200
H906        H  0.02818476  0.00451710  0.08533314     0.09900
H907        H  0.96495673  0.01385406  0.99536798     0.07900
Br908      Br  0.99738646  0.03264118  0.94100064    -0.02700
C909        C  0.08757344  0.42944561  0.90258526    -0.09300
C910        C  0.10816391  0.42580523  0.89178422     0.06900
C911        C  0.11702028  0.40703229  0.90389000    -0.03100
C912        C  0.10500823  0.39208144  0.92476573    -0.07500
C913        C  0.08418789  0.39544682  0.93362455     0.06000
C914        C  0.07559061  0.41451199  0.92335290    -0.02500
Br915      Br  0.04774764  0.42127062  0.93773940    -0.02200
H916        H  0.08060679  0.44387101  0.89403378     0.09900
H917        H  0.11192912  0.37772824  0.93396482     0.07900
Br918      Br  0.14563556  0.40149552  0.89588226    -0.02700
C919        C  0.15706282  0.61336137  0.89100629    -0.09300
C920        C  0.15000059  0.62901288  0.86272334     0.06900
C921        C  0.13980816  0.62379785  0.82212429    -0.03100
C922        C  0.13782052  0.60335003  0.80966672    -0.07500
C923        C  0.14532365  0.58781143  0.83750517     0.06000
C924        C  0.15481878  0.59293732  0.87879733    -0.02500
Br925      Br  0.16677255  0.57291854  0.91785635    -0.02200
H926        H  0.16513938  0.61698312  0.92201298     0.09900
H927        H  0.13023983  0.59953069  0.77813322     0.07900
Br928      Br  0.12725025  0.64361669  0.78342651    -0.02700
C929        C  0.22757390  0.48149079  0.54493678    -0.09300
C930        C  0.24551712  0.47433061  0.56548048     0.06900
C931        C  0.24492690  0.46755147  0.61058702    -0.03100
C932        C  0.22659526  0.46836376  0.63483680    -0.07500
C933        C  0.20888925  0.47649020  0.61512810     0.06000
C934        C  0.20935615  0.48289480  0.56966951    -0.02500
Br935      Br  0.18560940  0.49380892  0.54027700    -0.02200
H936        H  0.22796564  0.48684888  0.51026704     0.09900
H937        H  0.22641257  0.46353231  0.66989722     0.07900
Br938      Br  0.26885636  0.45740985  0.64062265    -0.02700
C939        C  0.21257574  0.75141803  0.54725043    -0.09300
C940        C  0.22724260  0.76365771  0.52588832     0.06900
C941        C  0.22570810  0.78494866  0.52941525    -0.03100
C942        C  0.20959279  0.79365742  0.55384971    -0.07500
C943        C  0.19447524  0.78146991  0.57402495     0.06000
C944        C  0.19614243  0.76005934  0.57071848    -0.02500
Br945      Br  0.17713605  0.74152574  0.59835336    -0.02200
H946        H  0.21358085  0.73501403  0.54457420     0.09900
H947        H  0.20864087  0.81006693  0.55631268     0.07900
Br948      Br  0.24542026  0.80273604  0.50202317    -0.02700
C949        C  0.25986663  0.72151644  0.15025946    -0.09300
C950        C  0.24891314  0.71890423  0.19063148     0.06900
C951        C  0.22750872  0.71636960  0.18907419    -0.03100
C952        C  0.21736855  0.71684731  0.14751029    -0.07500
C953        C  0.22818121  0.72008883  0.10715356     0.06000
C954        C  0.24968401  0.72225584  0.10859867    -0.02500
Br955      Br  0.26606244  0.72503079  0.05495998    -0.02200
H956        H  0.27636553  0.72322615  0.15122489     0.09900
H957        H  0.20089633  0.71486405  0.14674449     0.07900
Br958      Br  0.21147450  0.71135318  0.24238699    -0.02700
C959        C  0.33898856  0.62172205  0.42966593    -0.09300
C960        C  0.32114337  0.62919403  0.45025791     0.06900
C961        C  0.30986134  0.61625227  0.47909825    -0.03100
C962        C  0.31591827  0.59602091  0.48462672    -0.07500
C963        C  0.33324579  0.58821828  0.46229630     0.06000
C964        C  0.34529686  0.60159429  0.43602543    -0.02500
Br965      Br  0.37100448  0.59377318  0.40980518    -0.02200
H966        H  0.34808100  0.63162898  0.40831174     0.09900
H967        H  0.30636432  0.58614214  0.50495632     0.07900
Br968      Br  0.28493317  0.62437179  0.50845836    -0.02700
C969        C  0.22429536  0.78503160  0.68524019    -0.09300
C970        C  0.24408713  0.79233602  0.69419671     0.06900
C971        C  0.25213319  0.79033608  0.73828520    -0.03100
C972        C  0.24092654  0.78012751  0.77147680    -0.07500
C973        C  0.22147922  0.77209791  0.76207593     0.06000
C974        C  0.21288134  0.77516492  0.71886438    -0.02500
Br975      Br  0.18519524  0.76753744  0.70524242    -0.02200
H976        H  0.21781721  0.78680592  0.65186811     0.09900
H977        H  0.24760968  0.77830027  0.80477118     0.07900
Br978      Br  0.27765888  0.80234944  0.75652457    -0.02700
C979        C  0.40205173  0.84143482  0.51978231    -0.09300
C980        C  0.39348952  0.82342062  0.53699069     0.06900
C981        C  0.40651317  0.80902973  0.55759479    -0.03100
C982        C  0.42745038  0.81325616  0.56209522    -0.07500
C983        C  0.43584400  0.83135290  0.54514190     0.06000
C984        C  0.42295344  0.84545852  0.52342981    -0.02500
Br985      Br  0.43246198  0.87121846  0.50101831    -0.02200
H986        H  0.39236271  0.85282026  0.50434885     0.09900
H987        H  0.43728818  0.80227154  0.57854467     0.07900
Br988      Br  0.39708439  0.78286101  0.57740102    -0.02700
C989        C  0.52175961  0.89908554  0.82434295    -0.09300
C990        C  0.52214206  0.91171363  0.78610914     0.06900
C991        C  0.52076233  0.93298147  0.79210390    -0.03100
C992        C  0.51949682  0.94114317  0.83581528    -0.07500
C993        C  0.51966144  0.92851575  0.87402064     0.06000
C994        C  0.52056946  0.90725135  0.86799763    -0.02500
Br995      Br  0.51867075  0.88848601  0.91756365    -0.02200
H996        H  0.52237718  0.88272032  0.82024369     0.09900
H997        H  0.51841425  0.95747899  0.84001077     0.07900
Br998      Br  0.51889685  0.95163382  0.74235478    -0.02700
C999        C  0.21031796  0.02571264  0.04437671    -0.09300
C1000       C  0.22325588  0.03826115  0.07006305     0.06900
C1001       C  0.22192036  0.05951987  0.06528066    -0.03100
C1002       C  0.20772395  0.06787438  0.03521688    -0.07500
C1003       C  0.19531961  0.05533366  0.00818725     0.06000
C1004       C  0.19675033  0.03403345  0.01279651    -0.02500
Br1005     Br  0.18056637  0.01558330  0.97715736    -0.02200
H1006       H  0.21129045  0.00933944  0.04774437     0.09900
H1007       H  0.20683728  0.08425304  0.03188925     0.07900
Br1008     Br  0.23894543  0.07781466  0.09928327    -0.02700
C1009       C  0.27611112  0.93396247  0.38991190    -0.09300
C1010       C  0.26751147  0.93279445  0.34637941     0.06900
C1011       C  0.25740159  0.91466016  0.33322685    -0.03100
C1012       C  0.25725655  0.89786848  0.36246083    -0.07500
C1013       C  0.26684074  0.89885696  0.40482978     0.06000
C1014       C  0.27577466  0.91724871  0.41905604    -0.02500
Br1015     Br  0.28886473  0.91978829  0.47695821    -0.02200
H1016       H  0.28375579  0.94776733  0.40080307     0.09900
H1017       H  0.25063170  0.88363228  0.35106128     0.07900
Br1018     Br  0.24569037  0.91078739  0.27424348    -0.02700
C1019       C  0.39940050  0.01373085  0.17796352    -0.09300
C1020       C  0.38398009  0.00462313  0.15183390     0.06900
C1021       C  0.38941642  0.99330877  0.11314416    -0.03100
C1022       C  0.41001565  0.99127111  0.10123316    -0.07500
C1023       C  0.42555952  0.00027195  0.12738826     0.06000
C1024       C  0.42005304  0.01184510  0.16584984    -0.02500
Br1025     Br  0.43977554  0.02647849  0.20147671    -0.02200
H1026       H  0.39532255  0.02260153  0.20757136     0.09900
H1027       H  0.41389862  0.98202418  0.07209459     0.07900
Br1028     Br  0.36952906  0.97895134  0.07738947    -0.02700
C1029       C  0.83921968  0.92560650  0.78457774    -0.09300
C1030       C  0.85167669  0.93754662  0.81269969     0.06900
C1031       C  0.87310143  0.93596935  0.80934587    -0.03100
C1032       C  0.88175605  0.92283983  0.77737667    -0.07500
C1033       C  0.86928511  0.91142118  0.74813343     0.06000
C1034       C  0.84782481  0.91266905  0.75225961    -0.02500
Br1035     Br  0.82958736  0.89654642  0.71586714    -0.02200
H1036       H  0.82271922  0.92677592  0.78694373     0.09900
H1037       H  0.89826835  0.92185463  0.77471497     0.07900
Br1038     Br  0.89108135  0.95095931  0.84851762    -0.02700
C1039       C  0.79413471  0.10904432  0.87709734    -0.09300
C1040       C  0.80290581  0.09455229  0.84814359     0.06900
C1041       C  0.80966693  0.10078118  0.80491555    -0.03100
C1042       C  0.80748214  0.12112205  0.79176679    -0.07500
C1043       C  0.79805065  0.13550722  0.82021835     0.06000
C1044       C  0.79125979  0.12915059  0.86349513    -0.02500
Br1045     Br  0.77546177  0.14570756  0.90415864    -0.02200
H1046       H  0.78865559  0.10450244  0.91021344     0.09900
H1047       H  0.81253484  0.12554108  0.75825050     0.07900
Br1048     Br  0.81963309  0.08211424  0.76002939    -0.02700
C1049       C  0.55475084  0.94845215  0.36240951    -0.09300
C1050       C  0.57607623  0.95079566  0.35988763     0.06900
C1051       C  0.58849941  0.94154063  0.39295535    -0.03100
C1052       C  0.57950135  0.92976828  0.42698009    -0.07500
C1053       C  0.55822333  0.92698893  0.42873660     0.06000
C1054       C  0.54575793  0.93666798  0.39637766    -0.02500
Br1055     Br  0.51639605  0.93567104  0.39875542    -0.02200
H1056       H  0.54500457  0.95574869  0.33762610     0.09900
H1057       H  0.58918359  0.92275280  0.45228504     0.07900
Br1058     Br  0.61753272  0.94581391  0.39589132    -0.02700
C1059       C  0.68094091  0.97774492  0.02249378    -0.09300
C1060       C  0.68151533  0.97290456  0.06876909     0.06900
C1061       C  0.70043073  0.96741256  0.08856765    -0.03100
C1062       C  0.71838865  0.96835078  0.06265764    -0.07500
C1063       C  0.71781989  0.97499890  0.01764263     0.06000
C1064       C  0.69886265  0.97892327  0.99701981    -0.02500
Br1065     Br  0.69674186  0.98667318  0.93454145    -0.02200
H1066       H  0.66654132  0.98166728  0.00655906     0.09900
H1067       H  0.73300134  0.96537270  0.07866691     0.07900
Br1068     Br  0.70347211  0.96127900  0.15170711    -0.02700
C1069       C  0.72736489  0.29413199  0.07759631    -0.09300
C1070       C  0.73683517  0.28065283  0.04734387     0.06900
C1071       C  0.73156890  0.25987379  0.04852504    -0.03100
C1072       C  0.71722900  0.25288987  0.08012605    -0.07500
C1073       C  0.70829526  0.26626146  0.11146888     0.06000
C1074       C  0.71334280  0.28708669  0.10981051    -0.02500
Br1075     Br  0.70083160  0.30667114  0.14934240    -0.02200
H1076       H  0.73111301  0.31018304  0.07660563     0.09900
H1077       H  0.71352985  0.23683030  0.08113053     0.07900
Br1078     Br  0.74318095  0.24046814  0.00734431    -0.02700
C1079       C  0.70857160  0.22471290  0.54563595    -0.09300
C1080       C  0.73002553  0.22491991  0.54759541     0.06900
C1081       C  0.74137184  0.22485504  0.50700426    -0.03100
C1082       C  0.73113538  0.22455240  0.46532416    -0.07500
C1083       C  0.70967076  0.22378759  0.46349367     0.06000
C1084       C  0.69836819  0.22391068  0.50409836    -0.02500
Br1085     Br  0.66899382  0.22379732  0.50474730    -0.02200
H1086       H  0.69969422  0.22482556  0.57664550     0.09900
H1087       H  0.73995912  0.22456294  0.43424151     0.07900
Br1088     Br  0.77072886  0.22595728  0.50669467    -0.02700
C1089       C  0.61109252  0.12417511  0.25640223    -0.09300
C1090       C  0.61803189  0.13625584  0.22022217     0.06900
C1091       C  0.61649632  0.12823486  0.17579475    -0.03100
C1092       C  0.60866126  0.10863886  0.16905517    -0.07500
C1093       C  0.60299649  0.09612467  0.20550845     0.06000
C1094       C  0.60411194  0.10427040  0.24981862    -0.02500
Br1095     Br  0.59901483  0.08895175  0.30398653    -0.02200
H1096       H  0.61186256  0.12991349  0.29073578     0.09900
H1097       H  0.60795308  0.10274829  0.13480539     0.07900
Br1098     Br  0.62680229  0.14148001  0.12255956    -0.02700
C1099       C  0.34931794  0.42255194  0.21406923    -0.09300
C1100       C  0.37034273  0.41824222  0.21506476     0.06900
C1101       C  0.38231197  0.42566287  0.25127230    -0.03100
C1102       C  0.37317994  0.43746347  0.28509893    -0.07500
C1103       C  0.35220415  0.44192075  0.28381257     0.06000
C1104       C  0.34017629  0.43422754  0.24806923    -0.02500
Br1105     Br  0.31175010  0.44088699  0.24124780    -0.02200
H1106       H  0.34003727  0.41720394  0.18604714     0.09900
H1107       H  0.38257837  0.44344243  0.31228850     0.07900
Br1108     Br  0.41142862  0.42201541  0.25424912    -0.02700
C1109       C  0.70595617  0.25340917  0.92727975    -0.09300
C1110       C  0.71685897  0.26761122  0.90135666     0.06900
C1111       C  0.71381063  0.28850396  0.90905392    -0.03100
C1112       C  0.70001001  0.29487295  0.94252268    -0.07500
C1113       C  0.68877640  0.28065197  0.96786123     0.06000
C1114       C  0.69195217  0.25972418  0.96020637    -0.02500
Br1115     Br  0.67852758  0.23906875  0.99527208    -0.02200
H1116       H  0.70826734  0.23728702  0.92168246     0.09900
H1117       H  0.69780719  0.31099367  0.94829959     0.07900
Br1118     Br  0.72860096  0.30878081  0.87564067    -0.02700
C1119       C  0.51547003  0.30223476  0.10730836    -0.09300
C1120       C  0.53158275  0.30994449  0.08102446     0.06900
C1121       C  0.52733688  0.32428167  0.04694608    -0.03100
C1122       C  0.50725825  0.33093657  0.04033625    -0.07500
C1123       C  0.49112686  0.32363721  0.06734287     0.06000
C1124       C  0.49532023  0.30874984  0.10041752    -0.02500
Br1125     Br  0.47418144  0.29602166  0.13559693    -0.02200
H1126       H  0.51860507  0.29111029  0.13341533     0.09900
H1127       H  0.50441776  0.34252881  0.01511585     0.07900
Br1128     Br  0.54850114  0.33676747  0.01135491    -0.02700
C1129       C  0.64294852  0.37813344  0.35836398    -0.09300
C1130       C  0.65204442  0.39666814  0.34622941     0.06900
C1131       C  0.66235160  0.39809522  0.30433604    -0.03100
C1132       C  0.66172802  0.38169250  0.27395555    -0.07500
C1133       C  0.65105649  0.36373954  0.28464515     0.06000
C1134       C  0.64260835  0.36167652  0.32844385    -0.02500
Br1135     Br  0.63065473  0.33681465  0.35013336    -0.02200
H1136       H  0.63547266  0.37664415  0.39097092     0.09900
H1137       H  0.66851759  0.38352175  0.24074404     0.07900
Br1138     Br  0.67547271  0.42261332  0.28429778    -0.02700
C1139       C  0.33646197  0.39207596  0.35973787    -0.09300
C1140       C  0.31520970  0.39193743  0.36644966     0.06900
C1141       C  0.30666239  0.40424554  0.40055189    -0.03100
C1142       C  0.31942598  0.41641592  0.42736479    -0.07500
C1143       C  0.34071082  0.41667264  0.42051858     0.06000
C1144       C  0.34924601  0.40425481  0.38638530    -0.02500
Br1145     Br  0.37823389  0.40139515  0.37776309    -0.02200
H1146       H  0.34320065  0.38224516  0.33431168     0.09900
H1147       H  0.31269956  0.42567833  0.45383531     0.07900
Br1148     Br  0.27794104  0.40386273  0.41404354    -0.02700
C1149       C  0.41633924  0.43401273  0.78013988    -0.09300
C1150       C  0.39677443  0.43894032  0.76383444     0.06900
C1151       C  0.37963239  0.43536512  0.79194770    -0.03100
C1152       C  0.38233412  0.42661539  0.83480747    -0.07500
C1153       C  0.40187889  0.42115703  0.85036730     0.06000
C1154       C  0.41902839  0.42528247  0.82280473    -0.02500
Br1155     Br  0.44667368  0.42071142  0.84234102    -0.02200
H1156       H  0.42973200  0.43677107  0.75938827     0.09900
H1157       H  0.36904380  0.42384038  0.85589882     0.07900
Br1158     Br  0.35234524  0.44304111  0.77512114    -0.02700
C1159       C  0.49999060  0.50238373  0.51086026    -0.09300
C1160       C  0.48705496  0.49051370  0.48330627     0.06900
C1161       C  0.49579234  0.48016853  0.44588528    -0.03100
C1162       C  0.51695941  0.48103243  0.43868871    -0.07500
C1163       C  0.52993587  0.49194095  0.46783929     0.06000
C1164       C  0.52116902  0.50309942  0.50374003    -0.02500
Br1165     Br  0.53718882  0.51767915  0.54758703    -0.02200
H1166       H  0.49369433  0.51058450  0.53948085     0.09900
H1167       H  0.52344771  0.47249266  0.41075636     0.07900
Br1168     Br  0.48073616  0.46285697  0.40537087    -0.02700
C1169       C  0.72319739  0.57305882  0.43973847    -0.09300
C1170       C  0.71062810  0.56134972  0.41123681     0.06900
C1171       C  0.71073893  0.53998791  0.41565336    -0.03100
C1172       C  0.72376868  0.53078362  0.44708124    -0.07500
C1173       C  0.73698742  0.54246059  0.47411096     0.06000
C1174       C  0.73639615  0.56384165  0.47074830    -0.02500
Br1175     Br  0.75269045  0.58134797  0.50839856    -0.02200
H1176       H  0.72323925  0.58947990  0.43700321     0.09900
H1177       H  0.72396887  0.51435488  0.44953096     0.07900
Br1178     Br  0.69316254  0.52258952  0.38059595    -0.02700
C1179       C  0.57178488  0.90333100  0.29383023    -0.09300
C1180       C  0.59258630  0.90120308  0.28333915     0.06900
C1181       C  0.60062099  0.91093990  0.24484201    -0.03100
C1182       C  0.58774039  0.92221947  0.21693189    -0.04300
C1183       C  0.56677473  0.92400388  0.22649205     0.06000
C1184       C  0.55881150  0.91464169  0.26579197    -0.02500
Br1185     Br  0.53019285  0.91467961  0.28037523    -0.02200
H1186       H  0.56550491  0.89566840  0.32319504     0.09900
H1187       H  0.59411086  0.92935588  0.18701539     0.07900
Br1188     Br  0.62888505  0.90869493  0.22769762    -0.02700
C1189       C  0.67441839  0.73845837  0.31753501    -0.09300
C1190       C  0.66214024  0.75054326  0.28939586     0.06900
C1191       C  0.65016271  0.74094843  0.25571869    -0.03100
C1192       C  0.65029155  0.71969998  0.25176446    -0.07500
C1193       C  0.66224791  0.70762557  0.28067617     0.06000
C1194       C  0.67468382  0.71729808  0.31338359    -0.02500
Br1195     Br  0.69377654  0.70296412  0.35100062    -0.02200
H1196       H  0.68392861  0.74549697  0.34320999     0.09900
H1197       H  0.64106138  0.71256176  0.22570348     0.07900
Br1198     Br  0.63458176  0.75588156  0.21188445    -0.02700
C1199       C  0.68776389  0.55943934  0.53374255    -0.09300
C1200       C  0.68636542  0.53825935  0.53871887     0.06900
C1201       C  0.69575887  0.52897616  0.57628878    -0.03100
C1202       C  0.70623143  0.54085023  0.60790688    -0.07500
C1203       C  0.70731001  0.56209397  0.60377320     0.06000
C1204       C  0.69808118  0.57141538  0.56583423    -0.02500
Br1205     Br  0.69710204  0.60034775  0.55793345    -0.02200
H1206       H  0.68035104  0.56674891  0.50528683     0.09900
H1207       H  0.71311289  0.53338474  0.63678817     0.07900
Br1208     Br  0.69291990  0.50052511  0.58957271    -0.02700
C1209       C  0.70253466  0.58784149  0.97011276    -0.09300
C1210       C  0.72335434  0.58279162  0.96761999     0.06900
C1211       C  0.73421026  0.57862980  0.00769797    -0.03100
C1212       C  0.72437245  0.58041408  0.04962962    -0.07500
C1213       C  0.70388598  0.58673627  0.05217100     0.06000
C1214       C  0.69280753  0.58999087  0.01194943    -0.02500
Br1215     Br  0.66434775  0.59722711  0.01222206    -0.02200
H1216       H  0.69400106  0.59095110  0.93944939     0.09900
H1217       H  0.73299269  0.57771252  0.08036564     0.07900
Br1218     Br  0.76238449  0.57044582  0.00672354    -0.02700
C1219       C  0.81320928  0.89718236  0.92655303    -0.09300
C1220       C  0.82559863  0.88835996  0.89323220     0.06900
C1221       C  0.84676737  0.89213805  0.89311353    -0.03100
C1222       C  0.85529588  0.90471786  0.92621026    -0.07500
C1223       C  0.84304334  0.91328958  0.96035526     0.06000
C1224       C  0.82176030  0.90953112  0.96022765    -0.02500
Br1225     Br  0.80346100  0.92181836  0.00308661    -0.02200
H1226       H  0.79684139  0.89446097  0.92632001     0.09900
H1227       H  0.87167160  0.90735941  0.92590907     0.07900
Br1228     Br  0.86461045  0.88026174  0.84876948    -0.02700
C1229       C  0.76527263  0.86420349  0.51288743    -0.09300
C1230       C  0.75638804  0.86949476  0.55447163     0.06900
C1231       C  0.73665942  0.87808075  0.55512352    -0.03100
C1232       C  0.72542277  0.87930395  0.51489809    -0.07500
C1233       C  0.73360248  0.87209757  0.47385166     0.06000
C1234       C  0.75419756  0.86574717  0.47263196    -0.02500
Br1235     Br  0.76797649  0.85888505  0.41724264    -0.02200
H1236       H  0.78063597  0.85802052  0.51198089     0.09900
H1237       H  0.70969567  0.88443139  0.51651199     0.07900
Br1238     Br  0.72326891  0.88578334  0.61039241    -0.02700
C1239       C  0.80366963  0.72527251  0.77347414    -0.09300
C1240       C  0.78833400  0.73719000  0.75353763     0.06900
C1241       C  0.77044959  0.72768281  0.73703571    -0.03100
C1242       C  0.76871378  0.70655177  0.73834958    -0.07500
C1243       C  0.78426606  0.69456033  0.75707216     0.06000
C1244       C  0.80174079  0.70408335  0.77548746    -0.02500
Br1245     Br  0.82392516  0.68889044  0.80110464    -0.02200
H1246       H  0.81743346  0.73241908  0.78646338     0.09900
H1247       H  0.75488370  0.69945805  0.72555145     0.07900
Br1248     Br  0.74714493  0.74267379  0.71579686    -0.02700
loop_ 
_geom_bond_atom_site_label_1 
_geom_bond_atom_site_label_2 
_geom_bond_distance 
_geom_bond_site_symmetry_2 
_ccdc_geom_bond_type 
N1            N2   1.321       .  A
N1            C5   1.348       .  A
N1           Cu9   2.072       .  S
N2            C3   1.339       .  A
N2           Cu8   2.056       .  S
C3            C4   1.379       .  A
C3            H6   1.082       .  S
C4            C5   1.385       .  A
C4         C1230   1.471       .  S
C5            H7   1.082       .  S
Cu8          N11   2.056       .  S
Cu9          N19   2.074       .  S
Cu10         N12   2.067       .  S
Cu10         N18   2.068       .  S
N11          N12   1.320       .  A
N11          C15   1.340       .  A
N12          C13   1.346       .  A
C13          C14   1.385       .  A
C13          H16   1.082       .  S
C14          C15   1.381       .  A
C14        C1240   1.474       .  S
C15          H17   1.082       .  S
N18          N19   1.324       .  A
N18          C22   1.343       .  A
N19          C20   1.344       .  A
C20          C21   1.378       .  A
C20          H23   1.081       .  S
C21          C22   1.378       .  A
C21        C1220   1.463       .  S
C22          H24   1.082       .  S
N25          N26   1.323       .  A
N25          C29   1.343       .  A
N25         Cu33   2.078       .  S
N26          C27   1.345       .  A
N26         Cu32   2.069       .  S
C27          C28   1.382       .  A
C27          H30   1.082       .  S
C28          C29   1.384       .  A
C28        C1243   1.474       .  S
C29          H31   1.082       .  S
Cu32         N35   2.068       .  S
Cu33         N43   2.077       .  S
Cu34         N36   2.067       .  S
Cu34         N42   2.068       .  S
N35          N36   1.321       .  A
N35          C39   1.344       .  A
N36          C37   1.344       .  A
C37          C38   1.383       .  A
C37          H40   1.082       .  S
C38          C39   1.383       .  A
C38        C1210   1.472       .  S
C39          H41   1.082       .  S
N42          N43   1.321       .  A
N42          C46   1.341       .  A
N43          C44   1.348       .  A
C44          C45   1.389       .  A
C44          H47   1.081       .  S
C45          C46   1.385       .  A
C45        C1203   1.484       .  S
C46          H48   1.082       .  S
N49          N50   1.320       .  A
N49          C53   1.345       .  A
N49         Cu57   2.064       .  S
N50          C51   1.342       .  A
N50         Cu56   2.073       .  S
C51          C52   1.386       .  A
C51          H54   1.082       .  S
C52          C53   1.386       .  A
C52        C1233   1.479       .  S
C53          H55   1.082       .  S
Cu56         N59   2.073       .  S
Cu57         N67   2.064       .  S
Cu58         N60   2.076       .  S
Cu58         N66   2.077       .  S
N59          N60   1.321       .  A
N59          C63   1.343       .  A
N60          C61   1.346       .  A
C61          C62   1.387       .  A
C61          H64   1.081       .  S
C62          C63   1.387       .  A
C62        C1190   1.484       .  S
C63          H65   1.082       .  S
N66          N67   1.323       .  A
N66          C70   1.344       .  A
N67          C68   1.343       .  A
C68          C69   1.380       .  A
C68          H71   1.081       .  S
C69          C70   1.382       .  A
C69        C1180   1.468       .  S
C70          H72   1.082       .  S
N73          N74   1.321       .  A
N73          C77   1.345       .  A
N73         Cu81   2.080       .  S
N74          C75   1.345       .  A
N74         Cu80   2.068       .  S
C75          C76   1.384       .  A
C75          H78   1.082       .  S
C76          C77   1.387       .  A
C76        C1193   1.483       .  S
C77          H79   1.081       .  S
Cu80         N83   2.068       .  S
Cu81         N91   2.080       .  S
Cu82         N84   2.064       .  S
Cu82         N90   2.064       .  S
N83          N84   1.321       .  A
N83          C87   1.342       .  A
N84          C85   1.345       .  A
C85          C86   1.383       .  A
C85          H88   1.082       .  S
C86          C87   1.382       .  A
C86        C1213   1.472       .  S
C87          H89   1.082       .  S
N90          N91   1.322       .  A
N90          C94   1.342       .  A
N91          C92   1.346       .  A
C92          C93   1.387       .  A
C92          H95   1.082       .  S
C93          C94   1.383       .  A
C93        C1170   1.479       .  S
C94          H96   1.081       .  S
N97          N98   1.321       .  A
N97         C101   1.346       .  A
N97        Cu105   2.076       .  S
N98          C99   1.343       .  A
N98        Cu104   2.076       .  S
C99         C100   1.388       .  A
C99         H102   1.082       .  S
C100        C101   1.389       .  A
C100       C1160   1.491       .  S
C101        H103   1.079       .  S
Cu104       N107   2.075       .  S
Cu105       N115   2.076       .  S
Cu106       N108   2.073       .  S
Cu106       N114   2.073       .  S
N107        N108   1.321       .  A
N107        C111   1.344       .  A
N108        C109   1.346       .  A
C109        C110   1.387       .  A
C109        H112   1.081       .  S
C110        C111   1.387       .  A
C110       C1150   1.485       .  S
C111        H113   1.082       .  S
N114        N115   1.323       .  A
N114        C118   1.344       .  A
N115        C116   1.346       .  A
C116        C117   1.384       .  A
C116        H119   1.082       .  S
C117        C118   1.382       .  A
C117       C1143   1.476       .  S
C118        H120   1.082       .  S
N121        N122   1.321       .  A
N121        C125   1.349       .  A
N121       Cu129   2.076       .  S
N122        C123   1.340       .  A
N122       Cu128   2.064       .  S
C123        C124   1.381       .  A
C123        H126   1.082       .  S
C124        C125   1.388       .  A
C124       C1130   1.479       .  S
C125        H127   1.081       .  S
Cu128       N131   2.064       .  S
Cu129       N139   2.077       .  S
Cu130       N132   2.079       .  S
Cu130       N138   2.080       .  S
N131        N132   1.320       .  A
N131        C135   1.342       .  A
N132        C133   1.348       .  A
C133        C134   1.389       .  A
C133        H136   1.081       .  S
C134        C135   1.384       .  A
C134       C1163   1.484       .  S
C135        H137   1.082       .  S
N138        N139   1.324       .  A
N138        C142   1.345       .  A
N139        C140   1.344       .  A
C140        C141   1.383       .  A
C140        H143   1.082       .  S
C141        C142   1.382       .  A
C141       C1200   1.477       .  S
C142        H144   1.082       .  S
N145        N146   1.321       .  A
N145        C149   1.349       .  A
N145       Cu153   2.084       .  S
N146        C147   1.340       .  A
N146       Cu152   2.061       .  S
C147        C148   1.384       .  A
C147        H150   1.081       .  S
C148        C149   1.390       .  A
C148       C1133   1.484       .  S
C149        H151   1.082       .  S
Cu152       N155   2.060       .  S
Cu153       N163   2.085       .  S
Cu154       N156   2.074       .  S
Cu154       N162   2.074       .  S
N155        N156   1.321       .  A
N155        C159   1.343       .  A
N156        C157   1.346       .  A
C157        C158   1.385       .  A
C157        H160   1.082       .  S
C158        C159   1.380       .  A
C158       C1120   1.473       .  S
C159        H161   1.082       .  S
N162        N163   1.324       .  A
N162        C166   1.345       .  A
N163        C164   1.346       .  A
C164        C165   1.382       .  A
C164        H167   1.080       .  S
C165        C166   1.382       .  A
C165       C1113   1.477   1_554  S
C166        H168   1.082   1_554  S
N169        N170   1.321       .  A
N169        C173   1.345       .  A
N169       Cu177   2.073       .  S
N170        C171   1.343       .  A
N170       Cu176   2.072   1_554  S
C171        C172   1.385       .  A
C171        H174   1.082   1_554  S
C172        C173   1.386       .  A
C172       C1123   1.481       .  S
C173        H175   1.082       .  S
Cu176       N179   2.072       .  S
Cu177       N187   2.073       .  S
Cu178       N180   2.073   1_554  S
Cu178       N186   2.073       .  S
N179        N180   1.321       .  A
N179        C183   1.344       .  A
N180        C181   1.347       .  A
C181        C182   1.386       .  A
C181        H184   1.082       .  S
C182        C183   1.385       .  A
C182       C1153   1.481       .  S
C183        H185   1.082       .  S
N186        N187   1.323       .  A
N186        C190   1.342       .  A
N187        C188   1.346       .  A
C188        C189   1.384       .  A
C188        H191   1.082       .  S
C189        C190   1.381       .  A
C189       C1100   1.475       .  S
C190        H192   1.082       .  S
N193        N194   1.320       .  A
N193        C197   1.345       .  A
N193       Cu201   2.077       .  S
N194        C195   1.342       .  A
N194       Cu200   2.072       .  S
C195        C196   1.389       .  A
C195        H198   1.082       .  S
C196        C197   1.391       .  A
C196       C1090   1.494       .  S
C197        H199   1.078       .  S
Cu200       N203   2.072       .  S
Cu201       N211   2.078       .  S
Cu202       N204   2.070       .  S
Cu202       N210   2.069       .  S
N203        N204   1.321       .  A
N203        C207   1.344       .  A
N204        C205   1.346       .  A
C205        C206   1.383       .  A
C205        H208   1.082       .  S
C206        C207   1.383       .  A
C206       C1083   1.474       .  S
C207        H209   1.082       .  S
N210        N211   1.323       .  A
N210        C214   1.342       .  A
N211        C212   1.347       .  A
C212        C213   1.385       .  A
C212        H215   1.082       .  S
C213        C214   1.381       .  A
C213       C1073   1.476       .  S
C214        H216   1.082       .  S
N217        N218   1.321       .  A
N217        C221   1.347       .  A
N217       Cu225   2.074       .  S
N218        C219   1.339       .  A
N218       Cu224   2.058   1_565  S
C219        C220   1.382       .  A
C219        H222   1.082   1_565  S
C220        C221   1.387       .  A
C220       C1060   1.478       .  S
C221        H223   1.081       .  S
Cu224       N227   2.058       .  S
Cu225       N235   2.075       .  S
Cu226       N228   2.071       .  S
Cu226       N234   2.072   1_545  S
N227        N228   1.318       .  A
N227        C231   1.341       .  A
N228        C229   1.345       .  A
C229        C230   1.390       .  A
C229        H232   1.079       .  S
C230        C231   1.387       .  A
C230       C1093   1.489       .  S
C231        H233   1.082       .  S
N234        N235   1.323       .  A
N234        C238   1.343       .  A
N235        C236   1.345       .  A
C236        C237   1.382       .  A
C236        H239   1.080       .  S
C237        C238   1.382       .  A
C237       C1050   1.475       .  S
C238        H240   1.082       .  S
N241        N242   1.321       .  A
N241        C245   1.347       .  A
N241       Cu249   2.064       .  S
N242        C243   1.340       .  A
N242       Cu248   2.064   1_565  S
C243        C244   1.380       .  A
C243        H246   1.082   1_565  S
C244        C245   1.382       .  A
C244       C1063   1.468   1_556  S
C245        H247   1.082       .  S
Cu248       N251   2.063       .  S
Cu249       N259   2.066       .  S
Cu250       N252   2.072       .  S
Cu250       N258   2.073   1_545  S
N251        N252   1.320       .  A
N251        C255   1.341       .  A
N252        C253   1.347       .  A
C253        C254   1.388       .  A
C253        H256   1.081       .  S
C254        C255   1.384       .  A
C254       C1040   1.483       .  S
C255        H257   1.082       .  S
N258        N259   1.323       .  A
N258        C262   1.343       .  A
N259        C260   1.343       .  A
C260        C261   1.380       .  A
C260        H263   1.080       .  S
C261        C262   1.381       .  A
C261       C1030   1.469       .  S
C262        H264   1.082       .  S
N265        N266   1.321       .  A
N265        C269   1.343       .  A
N265       Cu273   2.069       .  S
N266        C267   1.345       .  A
N266       Cu272   2.076       .  S
C267        C268   1.388       .  A
C267        H270   1.082       .  S
C268        C269   1.386       .  A
C268       C1043   1.487       .  S
C269        H271   1.079       .  S
Cu272       N275   2.076       .  S
Cu273       N283   2.071       .  S
Cu274       N276   2.074       .  S
Cu274       N282   2.074       .  S
N275        N276   1.323       .  A
N275        C279   1.346       .  A
N276        C277   1.344       .  A
C277        C278   1.382       .  A
C277        H280   1.082       .  S
C278        C279   1.384       .  A
C278       C1080   1.474       .  S
C279        H281   1.082       .  S
N282        N283   1.321       .  A
N282        C286   1.346       .  A
N283        C284   1.344       .  A
C284        C285   1.383       .  A
C284        H287   1.081       .  S
C285        C286   1.384       .  A
C285       C1110   1.474       .  S
C286        H288   1.082       .  S
N289        N290   1.322       .  A
N289        C293   1.347       .  A
N289       Cu297   2.078       .  S
N290        C291   1.343       .  A
N290       Cu296   2.075       .  S
C291        C292   1.385       .  A
C291        H294   1.082       .  S
C292        C293   1.387       .  A
C292       C1010   1.484       .  S
C293        H295   1.081       .  S
Cu296       N299   2.074   1_565  S
Cu297       N307   2.078   1_565  S
Cu298       N300   2.072       .  S
Cu298       N306   2.072       .  S
N299        N300   1.322       .  A
N299        C303   1.346   1_545  A
N300        C301   1.345       .  A
C301        C302   1.383       .  A
C301        H304   1.082       .  S
C302        C303   1.382   1_545  A
C302       C1020   1.474       .  S
C303        H305   1.082       .  S
N306        N307   1.323       .  A
N306        C310   1.344       .  A
N307        C308   1.347       .  A
C308        C309   1.383       .  A
C308        H311   1.082       .  S
C309        C310   1.382       .  A
C309       C1000   1.473       .  S
C310        H312   1.082       .  S
N313        N314   1.322       .  A
N313        C317   1.344       .  A
N313       Cu321   2.072       .  S
N314        C315   1.345       .  A
N314       Cu320   2.078       .  S
C315        C316   1.386       .  A
C315        H318   1.082       .  S
C316        C317   1.385       .  A
C316       C1023   1.482   1_565  S
C317        H319   1.081       .  S
Cu320       N323   2.077   1_554  S
Cu321       N331   2.072       .  S
Cu322       N324   2.065   1_554  S
Cu322       N330   2.065       .  S
N323        N324   1.322       .  A
N323        C327   1.346       .  A
N324        C325   1.343       .  A
C325        C326   1.382       .  A
C325        H328   1.082       .  S
C326        C327   1.385       .  A
C326        C993   1.476       .  S
C327        H329   1.082       .  S
N330        N331   1.321       .  A
N330        C334   1.341       .  A
N331        C332   1.347       .  A
C332        C333   1.386       .  A
C332        H335   1.082       .  S
C333        C334   1.382       .  A
C333       C1183   1.477       .  S
C334        H336   1.082       .  S
N337        N338   1.322       .  A
N337        C341   1.343       .  A
N337       Cu345   2.068       .  S
N338        C339   1.344       .  A
N338       Cu344   2.068       .  S
C339        C340   1.382       .  A
C339        H342   1.082       .  S
C340        C341   1.383       .  A
C340        C983   1.473       .  S
C341        H343   1.082       .  S
Cu344       N347   2.069       .  S
Cu345       N355   2.068       .  S
Cu346       N348   2.072       .  S
Cu346       N354   2.072       .  S
N347        N348   1.322       .  A
N347        C351   1.344       .  A
N348        C349   1.345       .  A
C349        C350   1.385       .  A
C349        H352   1.081       .  S
C350        C351   1.383       .  A
C350        C990   1.478       .  S
C351        H353   1.082       .  S
N354        N355   1.322       .  A
N354        C358   1.344       .  A
N355        C356   1.344       .  A
C356        C357   1.382       .  A
C356        H359   1.082       .  S
C357        C358   1.382       .  A
C357       C1053   1.474       .  S
C358        H360   1.082       .  S
N361        N362   1.322       .  A
N361        C365   1.350       .  A
N361       Cu369   2.087       .  S
N362        C363   1.341       .  A
N362       Cu368   2.063       .  S
C363        C364   1.378       .  A
C363        H366   1.082       .  S
C364        C365   1.386       .  A
C364       C1013   1.472       .  S
C365        H367   1.082       .  S
Cu368       N371   2.062       .  S
Cu369       N379   2.089       .  S
Cu370       N372   2.067       .  S
Cu370       N378   2.068       .  S
N371        N372   1.319       .  A
N371        C375   1.341       .  A
N372        C373   1.346       .  A
C373        C374   1.388       .  A
C373        H376   1.081       .  S
C374        C375   1.385       .  A
C374        C980   1.482       .  S
C375        H377   1.082       .  S
N378        N379   1.324       .  A
N378        C382   1.341       .  A
N379        C380   1.348       .  A
C380        C381   1.386       .  A
C380        H383   1.082       .  S
C381        C382   1.381       .  A
C381        C970   1.478       .  S
C382        H384   1.082       .  S
N385        N386   1.323       .  A
N385        C389   1.346       .  A
N385       Cu393   2.080       .  S
N386        C387   1.344       .  A
N386       Cu392   2.077       .  S
C387        C388   1.383       .  A
C387        H390   1.082       .  S
C388        C389   1.386       .  A
C388        C960   1.481       .  S
C389        H391   1.081       .  S
Cu392       N395   2.076       .  S
Cu393       N403   2.079       .  S
Cu394       N396   2.059       .  S
Cu394       N402   2.059       .  S
N395        N396   1.321       .  A
N395        C399   1.347       .  A
N396        C397   1.342       .  A
C397        C398   1.379       .  A
C397        H400   1.082       .  S
C398        C399   1.383       .  A
C398        C950   1.470       .  S
C399        H401   1.082       .  S
N402        N403   1.321       .  A
N402        C406   1.342       .  A
N403        C404   1.347       .  A
C404        C405   1.386       .  A
C404        H407   1.082       .  S
C405        C406   1.381       .  A
C405        C940   1.475       .  S
C406        H408   1.082       .  S
N409        N410   1.323       .  A
N409        C413   1.345       .  A
N409       Cu417   2.067       .  S
N410        C411   1.341       .  A
N410       Cu416   2.065       .  S
C411        C412   1.379       .  A
C411        H414   1.082       .  S
C412        C413   1.381       .  A
C412        C930   1.467       .  S
C413        H415   1.082       .  S
Cu416       N419   2.064       .  S
Cu417       N427   2.067       .  S
Cu418       N420   2.074       .  S
Cu418       N426   2.074       .  S
N419        N420   1.319       .  A
N419        C423   1.343       .  A
N420        C421   1.345       .  A
C421        C422   1.390       .  A
C421        H424   1.081       .  S
C422        C423   1.387       .  A
C422        C963   1.488       .  S
C423        H425   1.082       .  S
N426        N427   1.322       .  A
N426        C430   1.344       .  A
N427        C428   1.344       .  A
C428        C429   1.381       .  A
C428        H431   1.080       .  S
C429        C430   1.382       .  A
C429       C1103   1.473       .  S
C430        H432   1.082       .  S
N433        N434   1.320       .  A
N433        C437   1.342       .  A
N433       Cu441   2.065       .  S
N434        C435   1.344       .  A
N434       Cu440   2.069       .  S
C435        C436   1.387       .  A
C435        H438   1.082       .  S
C436        C437   1.385       .  A
C436        C920   1.482       .  S
C437        H439   1.081       .  S
Cu440       N443   2.070   1_556  S
Cu441       N451   2.065       .  S
Cu442       N444   2.064       .  S
Cu442       N450   2.062       .  S
N443        N444   1.322   1_554  A
N443        C447   1.343       .  A
N444        C445   1.344   1_556  A
C445        C446   1.382       .  A
C445        H448   1.082       .  S
C446        C447   1.382       .  A
C446        C953   1.473       .  S
C447        H449   1.082       .  S
N450        N451   1.320       .  A
N450        C454   1.343       .  A
N451        C452   1.343       .  A
C452        C453   1.385       .  A
C452        H455   1.081       .  S
C453        C454   1.384       .  A
C453        C973   1.478       .  S
C454        H456   1.082       .  S
N457        N458   1.322       .  A
N457        C461   1.344       .  A
N457       Cu465   2.071       .  S
N458        C459   1.343       .  A
N458       Cu464   2.066       .  S
C459        C460   1.381       .  A
C459        H462   1.082       .  S
C460        C461   1.383       .  A
C460        C933   1.469       .  S
C461        H463   1.082       .  S
Cu464       N467   2.066       .  S
Cu465       N475   2.071       .  S
Cu466       N468   2.076       .  S
Cu466       N474   2.077       .  S
N467        N468   1.322       .  A
N467        C471   1.344       .  A
N468        C469   1.346       .  A
C469        C470   1.384       .  A
C469        H472   1.082       .  S
C470        C471   1.381       .  A
C470        C923   1.475       .  S
C471        H473   1.082       .  S
N474        N475   1.322       .  A
N474        C478   1.344       .  A
N475        C476   1.345       .  A
C476        C477   1.384       .  A
C476        H479   1.082       .  S
C477        C478   1.384       .  A
C477        C910   1.478       .  S
C478        H480   1.082       .  S
N481        N482   1.322       .  A
N481        C485   1.346       .  A
N481       Cu489   2.074   1_556  S
N482        C483   1.342       .  A
N482       Cu488   2.075       .  S
C483        C484   1.386       .  A
C483        H486   1.080       .  S
C484        C485   1.387       .  A
C484        C893   1.486       .  S
C485        H487   1.082       .  S
Cu488       N491   2.073   1_565  S
Cu489       N499   2.073   1_565  S
Cu490       N492   2.066       .  S
Cu490       N498   2.067       .  S
N491        N492   1.320   1_556  A
N491        C495   1.346       .  A
N492        C493   1.343       .  A
C493        C494   1.384       .  A
C493        H496   1.082       .  S
C494        C495   1.386   1_554  A
C494        C900   1.476       .  S
C495        H497   1.082       .  S
N498        N499   1.322       .  A
N498        C502   1.342       .  A
N499        C500   1.347       .  A
C500        C501   1.383       .  A
C500        H503   1.082       .  S
C501        C502   1.381       .  A
C501        C880   1.472       .  S
C502        H504   1.082       .  S
N505        N506   1.320       .  A
N505        C509   1.343       .  A
N505       Cu513   2.064       .  S
N506        C507   1.344       .  A
N506       Cu512   2.075       .  S
C507        C508   1.388       .  A
C507        H510   1.080       .  S
C508        C509   1.386       .  A
C508        C903   1.486   1_565  S
C509        H511   1.082       .  S
Cu512       N515   2.075       .  S
Cu513       N523   2.063       .  S
Cu514       N516   2.072       .  S
Cu514       N522   2.072       .  S
N515        N516   1.322       .  A
N515        C519   1.344       .  A
N516        C517   1.345       .  A
C517        C518   1.385       .  A
C517        H520   1.081       .  S
C518        C519   1.385       .  A
C518        C870   1.482       .  S
C519        H521   1.082       .  S
N522        N523   1.322       .  A
N522        C526   1.344       .  A
N523        C524   1.342   1_554  A
C524        C525   1.383       .  A
C524        H527   1.082       .  S
C525        C526   1.385   1_556  A
C525       C1223   1.475       .  S
C526        H528   1.082       .  S
N529        N530   1.323       .  A
N529        C533   1.344       .  A
N529       Cu537   2.072       .  S
N530        C531   1.344       .  A
N530       Cu536   2.074       .  S
C531        C532   1.383       .  A
C531        H534   1.082       .  S
C532        C533   1.383       .  A
C532        C860   1.475       .  S
C533        H535   1.082       .  S
Cu536       N539   2.074       .  S
Cu537       N547   2.070       .  S
Cu538       N540   2.057       .  S
Cu538       N546   2.057       .  S
N539        N540   1.321       .  A
N539        C543   1.347       .  A
N540        C541   1.341       .  A
C541        C542   1.380       .  A
C541        H544   1.082       .  S
C542        C543   1.385       .  A
C542        C873   1.473       .  S
C543        H545   1.082       .  S
N546        N547   1.321       .  A
N546        C550   1.341       .  A
N547        C548   1.346       .  A
C548        C549   1.384       .  A
C548        H551   1.082       .  S
C549        C550   1.380       .  A
C549       C1033   1.471       .  S
C550        H552   1.082       .  S
N553        N554   1.322       .  A
N553        C557   1.351       .  A
N553       Cu561   2.090       .  S
N554        C555   1.339       .  A
N554       Cu560   2.066       .  S
C555        C556   1.384       .  A
C555        H558   1.082       .  S
C556        C557   1.392       .  A
C556        C890   1.487       .  S
C557        H559   1.081       .  S
Cu560       N563   2.066       .  S
Cu561       N571   2.091       .  S
Cu562       N564   2.061       .  S
Cu562       N570   2.063       .  S
N563        N564   1.319       .  A
N563        C567   1.343       .  A
N564        C565   1.344       .  A
C565        C566   1.384       .  A
C565        H568   1.082       .  S
C566        C567   1.382       .  A
C566        C863   1.472       .  S
C567        H569   1.082       .  S
N570        N571   1.323       .  A
N570        C574   1.342       .  A
N571        C572   1.347       .  A
C572        C573   1.388       .  A
C572        H575   1.082       .  S
C573        C574   1.381       .  A
C573        C943   1.480       .  S
C574        H576   1.081       .  S
N577        N578   1.324       .  A
N577        C581   1.350       .  A
N577       Cu585   2.090       .  S
N578        C579   1.341       .  A
N578       Cu584   2.065       .  S
C579        C580   1.377       .  A
C579        H582   1.082       .  S
C580        C581   1.386       .  A
C580        C843   1.473       .  S
C581        H583   1.082       .  S
Cu584       N587   2.065       .  S
Cu585       N595   2.090       .  S
Cu586       N588   2.060       .  S
Cu586       N594   2.061       .  S
N587        N588   1.318       .  A
N587        C591   1.342       .  A
N588        C589   1.345       .  A
C589        C590   1.385       .  A
C589        H592   1.081       .  S
C590        C591   1.385       .  A
C590        C850   1.478       .  S
C591        H593   1.082       .  S
N594        N595   1.324       .  A
N594        C598   1.341       .  A
N595        C596   1.349       .  A
C596        C597   1.386       .  A
C596        H599   1.082       .  S
C597        C598   1.377       .  A
C597       C1140   1.472       .  S
C598        H600   1.082       .  S
N601        N602   1.322       .  A
N601        C605   1.342       .  A
N601       Cu609   2.065       .  S
N602        C603   1.346       .  A
N602       Cu608   2.070       .  S
C603        C604   1.382       .  A
C603        H606   1.082       .  S
C604        C605   1.380       .  A
C604        C853   1.467       .  S
C605        H607   1.082       .  S
Cu608       N611   2.071       .  S
Cu609       N619   2.065       .  S
Cu610       N612   2.077       .  S
Cu610       N618   2.077       .  S
N611        N612   1.323       .  A
N611        C615   1.344       .  A
N612        C613   1.346       .  A
C613        C614   1.384       .  A
C613        H616   1.082       .  S
C614        C615   1.383       .  A
C614        C830   1.476       .  S
C615        H617   1.082       .  S
N618        N619   1.321       .  A
N618        C622   1.344       .  A
N619        C620   1.345       .  A
C620        C621   1.384       .  A
C620        H623   1.081       .  S
C621        C622   1.385       .  A
C621        C883   1.479       .  S
C622        H624   1.082       .  S
N625        N626   1.322       .  A
N625        C629   1.345       .  A
N625       Cu633   2.077       .  S
N626        C627   1.343       .  A
N626       Cu632   2.065       .  S
C627        C628   1.383       .  A
C627        H630   1.081       .  S
C628        C629   1.385       .  A
C628        C820   1.479       .  S
C629        H631   1.082       .  S
Cu632       N635   2.065       .  S
Cu633       N643   2.077       .  S
Cu634       N636   2.071       .  S
Cu634       N642   2.071       .  S
N635        N636   1.320       .  A
N635        C639   1.344       .  A
N636        C637   1.343       .  A
C637        C638   1.386       .  A
C637        H640   1.082       .  S
C638        C639   1.384       .  A
C638        C833   1.479       .  S
C639        H641   1.082       .  S
N642        N643   1.322       .  A
N642        C646   1.344       .  A
N643        C644   1.346       .  A
C644        C645   1.384       .  A
C644        H647   1.082   1_556  S
C645        C646   1.383       .  A
C645       C1003   1.476   1_556  S
C646        H648   1.082       .  S
N649        N650   1.323   1_556  A
N649        C653   1.348       .  A
N649       Cu657   2.083       .  S
N650        C651   1.343       .  A
N650       Cu656   2.071   1_554  S
C651        C652   1.381       .  A
C651        H654   1.082       .  S
C652        C653   1.386   1_554  A
C652        C840   1.477       .  S
C653        H655   1.082       .  S
Cu656       N659   2.070       .  S
Cu657       N667   2.083       .  S
Cu658       N660   2.069       .  S
Cu658       N666   2.070       .  S
N659        N660   1.320       .  A
N659        C663   1.344       .  A
N660        C661   1.344       .  A
C661        C662   1.385       .  A
C661        H664   1.082       .  S
C662        C663   1.384       .  A
C662        C823   1.475       .  S
C663        H665   1.082       .  S
N666        N667   1.321       .  A
N666        C670   1.343       .  A
N667        C668   1.347       .  A
C668        C669   1.390       .  A
C668        H671   1.080       .  S
C669        C670   1.386       .  A
C669        C813   1.488       .  S
C670        H672   1.082       .  S
N673        N674   1.322   1_556  A
N673        C677   1.346       .  A
N673       Cu681   2.085   1_655  S
N674        C675   1.344       .  A
N674       Cu680   2.072   1_655  S
C675        C676   1.387   1_554  A
C675        H678   1.082       .  S
C676        C677   1.389       .  A
C676        C800   1.488       .  S
C677        H679   1.081       .  S
Cu680       N683   2.071       .  S
Cu681       N691   2.085       .  S
Cu682       N684   2.058       .  S
Cu682       N690   2.057       .  S
N683        N684   1.319       .  A
N683        C687   1.343       .  A
N684        C685   1.343       .  A
C685        C686   1.385       .  A
C685        H688   1.081       .  S
C686        C687   1.388       .  A
C686        C790   1.484       .  S
C687        H689   1.082       .  S
N690        N691   1.322   1_554  A
N690        C694   1.343   1_554  A
N691        C692   1.346       .  A
C692        C693   1.386       .  A
C692        H695   1.082       .  S
C693        C694   1.379       .  A
C693        C913   1.474       .  S
C694        H696   1.082   1_556  S
N697        N698   1.322       .  A
N697        C701   1.346       .  A
N697       Cu705   2.074       .  S
N698        C699   1.344       .  A
N698       Cu704   2.074       .  S
C699        C700   1.384       .  A
C699        H702   1.082       .  S
C700        C701   1.384       .  A
C700        C780   1.477       .  S
C701        H703   1.082       .  S
Cu704       N707   2.074       .  S
Cu705       N715   2.074       .  S
Cu706       N708   2.075       .  S
Cu706       N714   2.075       .  S
N707        N708   1.322       .  A
N707        C711   1.345       .  A
N708        C709   1.346       .  A
C709        C710   1.386       .  A
C709        H712   1.081       .  S
C710        C711   1.385       .  A
C710        C803   1.483       .  S
C711        H713   1.082       .  S
N714        N715   1.322       .  A
N714        C718   1.345   1_556  A
N715        C716   1.345       .  A
C716        C717   1.381   1_556  A
C716        H719   1.081       .  S
C717        C718   1.383       .  A
C717       C1070   1.474       .  S
C718        H720   1.082       .  S
N721        N722   1.323       .  A
N721        C725   1.343       .  A
N721       Cu729   2.076   1_655  S
N722        C723   1.346       .  A
N722       Cu728   2.072       .  S
C723        C724   1.382       .  A
C723        H726   1.082       .  S
C724        C725   1.382       .  A
C724        C773   1.469       .  S
C725        H727   1.082       .  S
Cu728       N731   2.072   1_655  S
Cu729       N739   2.076       .  S
Cu730       N732   2.059       .  S
Cu730       N738   2.059       .  S
N731        N732   1.322       .  A
N731        C735   1.345       .  A
N732        C733   1.342       .  A
C733        C734   1.380       .  A
C733        H736   1.082       .  S
C734        C735   1.385       .  A
C734        C793   1.473       .  S
C735        H737   1.082   1_455  S
N738        N739   1.320       .  A
N738        C742   1.343       .  A
N739        C740   1.345       .  A
C740        C741   1.386       .  A
C740        H743   1.082       .  S
C741        C742   1.383       .  A
C741        C810   1.478       .  S
C742        H744   1.082       .  S
N745        N746   1.322       .  A
N745        C749   1.349       .  A
N745       Cu753   2.082       .  S
N746        C747   1.342       .  A
N746       Cu752   2.065       .  S
C747        C748   1.378       .  A
C747        H750   1.082       .  S
C748        C749   1.385       .  A
C748        C783   1.470       .  S
C749        H751   1.082       .  S
Cu752       N755   2.065       .  S
Cu753       N763   2.083       .  S
Cu754       N756   2.070       .  S
Cu754       N762   2.072       .  S
N755        N756   1.320       .  A
N755        C759   1.341       .  A
N756        C757   1.348       .  A
C757        C758   1.386       .  A
C757        H760   1.082       .  S
C758        C759   1.383       .  A
C758        C770   1.476       .  S
C759        H761   1.082       .  S
N762        N763   1.324       .  A
N762        C766   1.343       .  A
N763        C764   1.346       .  A
C764        C765   1.384       .  A
C764        H767   1.081       .  S
C765        C766   1.382       .  A
C765       C1173   1.477       .  S
C766        H768   1.082       .  S
C769        C770   1.403       .  A
C769        C774   1.393       .  A
C769        H776   1.083       .  S
C770        C771   1.411       .  A
C771        C772   1.404       .  A
C771       Br778   1.918       .  S
C772        C773   1.402       .  A
C772        H777   1.083       .  S
C773        C774   1.406       .  A
C774       Br775   1.920       .  S
C779        C780   1.404       .  A
C779        C784   1.400       .  A
C779        H786   1.083       .  S
C780        C781   1.410       .  A
C781        C782   1.399       .  A
C781       Br788   1.919       .  S
C782        C783   1.401       .  A
C782        H787   1.084       .  S
C783        C784   1.406       .  A
C784       Br785   1.918       .  S
C789        C790   1.407       .  A
C789        C794   1.397       .  A
C789        H796   1.082   1_455  S
C790        C791   1.414       .  A
C791        C792   1.398       .  A
C791       Br798   1.920       .  S
C792        C793   1.401       .  A
C792        H797   1.084       .  S
C793        C794   1.407       .  A
C794       Br795   1.920   1_455  S
C799        C800   1.406   1_554  A
C799        C804   1.399   1_554  A
C799        H806   1.083       .  S
C800        C801   1.413       .  A
C801        C802   1.401       .  A
C801       Br808   1.919       .  S
C802        C803   1.404       .  A
C802        H807   1.084       .  S
C803        C804   1.412       .  A
C804       Br805   1.920   1_556  S
C809        C810   1.400       .  A
C809        C814   1.397       .  A
C809        H816   1.084       .  S
C810        C811   1.410       .  A
C811        C812   1.399       .  A
C811       Br818   1.920       .  S
C812        C813   1.407       .  A
C812        H817   1.083       .  S
C813        C814   1.413       .  A
C814       Br815   1.908       .  S
C819        C820   1.405       .  A
C819        C824   1.400       .  A
C819        H826   1.083       .  S
C820        C821   1.414       .  A
C821        C822   1.396       .  A
C821       Br828   1.921       .  S
C822        C823   1.402       .  A
C822        H827   1.084       .  S
C823        C824   1.407       .  A
C824       Br825   1.918   1_556  S
C829        C830   1.404       .  A
C829        C834   1.400       .  A
C829        H836   1.084       .  S
C830        C831   1.409       .  A
C831        C832   1.397       .  A
C831       Br838   1.920       .  S
C832        C833   1.404       .  A
C832        H837   1.083       .  S
C833        C834   1.411       .  A
C834       Br835   1.919       .  S
C839        C840   1.404       .  A
C839        C844   1.400       .  A
C839        H846   1.084       .  S
C840        C841   1.410       .  A
C841        C842   1.400       .  A
C841       Br848   1.919   1_554  S
C842        C843   1.402       .  A
C842        H847   1.084       .  S
C843        C844   1.408       .  A
C844       Br845   1.919       .  S
C849        C850   1.404       .  A
C849        C854   1.394       .  A
C849        H856   1.083       .  S
C850        C851   1.413       .  A
C851        C852   1.401       .  A
C851       Br858   1.919       .  S
C852        C853   1.400       .  A
C852        H857   1.083       .  S
C853        C854   1.405       .  A
C854       Br855   1.920       .  S
C859        C860   1.403   1_455  A
C859        C864   1.395       .  A
C859        H866   1.083       .  S
C860        C861   1.409       .  A
C861        C862   1.399   1_655  A
C861       Br868   1.919       .  S
C862        C863   1.402       .  A
C862        H867   1.084       .  S
C863        C864   1.410       .  A
C864       Br865   1.921       .  S
C869        C870   1.404       .  A
C869        C874   1.397       .  A
C869        H876   1.083       .  S
C870        C871   1.415       .  A
C871        C872   1.400       .  A
C871       Br878   1.919       .  S
C872        C873   1.400       .  A
C872        H877   1.084       .  S
C873        C874   1.409       .  A
C874       Br875   1.921       .  S
C879        C880   1.401       .  A
C879        C884   1.398       .  A
C879        H886   1.084       .  S
C880        C881   1.408       .  A
C881        C882   1.398       .  A
C881       Br888   1.918       .  S
C882        C883   1.404       .  A
C882        H887   1.084       .  S
C883        C884   1.413       .  A
C884       Br885   1.919       .  S
C889        C890   1.404       .  A
C889        C894   1.393       .  A
C889        H896   1.082       .  S
C890        C891   1.411       .  A
C891        C892   1.405       .  A
C891       Br898   1.918       .  S
C892        C893   1.409       .  A
C892        H897   1.083       .  S
C893        C894   1.413       .  A
C894       Br895   1.922       .  S
C899        C900   1.401       .  A
C899        C904   1.396   1_445  A
C899        H906   1.084       .  S
C900        C901   1.405   1_454  A
C901        C902   1.401   1_556  A
C901       Br908   1.918       .  S
C902        C903   1.409       .  A
C902        H907   1.083   1_554  S
C903        C904   1.416   1_545  A
C904       Br905   1.921       .  S
C909        C910   1.403       .  A
C909        C914   1.397       .  A
C909        H916   1.083       .  S
C910        C911   1.411       .  A
C911        C912   1.400       .  A
C911       Br918   1.919       .  S
C912        C913   1.403       .  A
C912        H917   1.083       .  S
C913        C914   1.408       .  A
C914       Br915   1.920       .  S
C919        C920   1.405       .  A
C919        C924   1.397       .  A
C919        H926   1.083       .  S
C920        C921   1.413       .  A
C921        C922   1.399       .  A
C921       Br928   1.920       .  S
C922        C923   1.402       .  A
C922        H927   1.084       .  S
C923        C924   1.408       .  A
C924       Br925   1.919       .  S
C929        C930   1.403       .  A
C929        C934   1.399       .  A
C929        H936   1.084       .  S
C930        C931   1.406       .  A
C931        C932   1.396       .  A
C931       Br938   1.919       .  S
C932        C933   1.402       .  A
C932        H937   1.084       .  S
C933        C934   1.408       .  A
C934       Br935   1.919       .  S
C939        C940   1.400       .  A
C939        C944   1.398       .  A
C939        H946   1.084       .  S
C940        C941   1.408       .  A
C941        C942   1.399       .  A
C941       Br948   1.917       .  S
C942        C943   1.404       .  A
C942        H947   1.083       .  S
C943        C944   1.416       .  A
C944       Br945   1.920       .  S
C949        C950   1.401       .  A
C949        C954   1.400       .  A
C949        H956   1.084       .  S
C950        C951   1.408       .  A
C951        C952   1.395       .  A
C951       Br958   1.919       .  S
C952        C953   1.401       .  A
C952        H957   1.084       .  S
C953        C954   1.412       .  A
C954       Br955   1.920       .  S
C959        C960   1.404       .  A
C959        C964   1.400       .  A
C959        H966   1.084       .  S
C960        C961   1.411       .  A
C961        C962   1.399       .  A
C961       Br968   1.920       .  S
C962        C963   1.407       .  A
C962        H967   1.082       .  S
C963        C964   1.412       .  A
C964       Br965   1.919       .  S
C969        C970   1.403       .  A
C969        C974   1.401       .  A
C969        H976   1.079       .  S
C970        C971   1.411       .  A
C971        C972   1.395       .  A
C971       Br978   1.920       .  S
C972        C973   1.402       .  A
C972        H977   1.083       .  S
C973        C974   1.409       .  A
C974       Br975   1.918       .  S
C979        C980   1.405       .  A
C979        C984   1.394       .  A
C979        H986   1.083       .  S
C980        C981   1.413       .  A
C981        C982   1.401       .  A
C981       Br988   1.919       .  S
C982        C983   1.402       .  A
C982        H987   1.084       .  S
C983        C984   1.409       .  A
C984       Br985   1.922       .  S
C989        C990   1.403       .  A
C989        C994   1.398       .  A
C989        H996   1.084       .  S
C990        C991   1.412       .  A
C991        C992   1.399       .  A
C991       Br998   1.920       .  S
C992        C993   1.402       .  A
C992        H997   1.084       .  S
C993        C994   1.411       .  A
C994       Br995   1.920       .  S
C999       C1000   1.402       .  A
C999       C1004   1.400       .  A
C999       H1006   1.083       .  S
C1000      C1001   1.408       .  A
C1001      C1002   1.398       .  A
C1001     Br1008   1.919       .  S
C1002      C1003   1.403       .  A
C1002      H1007   1.083       .  S
C1003      C1004   1.411       .  A
C1004     Br1005   1.920   1_554  S
C1009      C1010   1.405       .  A
C1009      C1014   1.397       .  A
C1009      H1016   1.083       .  S
C1010      C1011   1.416       .  A
C1011      C1012   1.403       .  A
C1011     Br1018   1.919       .  S
C1012      C1013   1.401       .  A
C1012      H1017   1.084       .  S
C1013      C1014   1.405       .  A
C1014     Br1015   1.919       .  S
C1019      C1020   1.402       .  A
C1019      C1024   1.401       .  A
C1019      H1026   1.084       .  S
C1020      C1021   1.408   1_545  A
C1021      C1022   1.397       .  A
C1021     Br1028   1.920       .  S
C1022      C1023   1.405   1_565  A
C1022      H1027   1.083       .  S
C1023      C1024   1.413       .  A
C1024     Br1025   1.919       .  S
C1029      C1030   1.401       .  A
C1029      C1034   1.396       .  A
C1029      H1036   1.083       .  S
C1030      C1031   1.407       .  A
C1031      C1032   1.398       .  A
C1031     Br1038   1.919       .  S
C1032      C1033   1.403       .  A
C1032      H1037   1.083       .  S
C1033      C1034   1.409       .  A
C1034     Br1035   1.921       .  S
C1039      C1040   1.402       .  A
C1039      C1044   1.396       .  A
C1039      H1046   1.083       .  S
C1040      C1041   1.412       .  A
C1041      C1042   1.401       .  A
C1041     Br1048   1.919       .  S
C1042      C1043   1.407       .  A
C1042      H1047   1.083       .  S
C1043      C1044   1.416       .  A
C1044     Br1045   1.921       .  S
C1049      C1050   1.403       .  A
C1049      C1054   1.397       .  A
C1049      H1056   1.084       .  S
C1050      C1051   1.410       .  A
C1051      C1052   1.398       .  A
C1051     Br1058   1.918       .  S
C1052      C1053   1.402       .  A
C1052      H1057   1.084       .  S
C1053      C1054   1.409       .  A
C1054     Br1055   1.920       .  S
C1059      C1060   1.404       .  A
C1059      C1064   1.393   1_554  A
C1059      H1066   1.084       .  S
C1060      C1061   1.415       .  A
C1061      C1062   1.401       .  A
C1061     Br1068   1.919       .  S
C1062      C1063   1.401       .  A
C1062      H1067   1.084       .  S
C1063      C1064   1.405   1_554  A
C1064     Br1065   1.920       .  S
C1069      C1070   1.402       .  A
C1069      C1074   1.399       .  A
C1069      H1076   1.083       .  S
C1070      C1071   1.409       .  A
C1071      C1072   1.399       .  A
C1071     Br1078   1.918       .  S
C1072      C1073   1.403       .  A
C1072      H1077   1.083       .  S
C1073      C1074   1.409       .  A
C1074     Br1075   1.920       .  S
C1079      C1080   1.402       .  A
C1079      C1084   1.397       .  A
C1079      H1086   1.084       .  S
C1080      C1081   1.409       .  A
C1081      C1082   1.401       .  A
C1081     Br1088   1.919       .  S
C1082      C1083   1.404       .  A
C1082      H1087   1.084       .  S
C1083      C1084   1.408       .  A
C1084     Br1085   1.919       .  S
C1089      C1090   1.407       .  A
C1089      C1094   1.398       .  A
C1089      H1096   1.082       .  S
C1090      C1091   1.417       .  A
C1091      C1092   1.399       .  A
C1091     Br1098   1.919       .  S
C1092      C1093   1.405       .  A
C1092      H1097   1.083       .  S
C1093      C1094   1.415       .  A
C1094     Br1095   1.920       .  S
C1099      C1100   1.403       .  A
C1099      C1104   1.397       .  A
C1099      H1106   1.084       .  S
C1100      C1101   1.411       .  A
C1101      C1102   1.398       .  A
C1101     Br1108   1.919       .  S
C1102      C1103   1.402       .  A
C1102      H1107   1.084       .  S
C1103      C1104   1.409       .  A
C1104     Br1105   1.919       .  S
C1109      C1110   1.402       .  A
C1109      C1114   1.398       .  A
C1109      H1116   1.084       .  S
C1110      C1111   1.407       .  A
C1111      C1112   1.401       .  A
C1111     Br1118   1.919       .  S
C1112      C1113   1.404       .  A
C1112      H1117   1.083       .  S
C1113      C1114   1.410       .  A
C1114     Br1115   1.920       .  S
C1119      C1120   1.402       .  A
C1119      C1124   1.400       .  A
C1119      H1126   1.084       .  S
C1120      C1121   1.408       .  A
C1121      C1122   1.397       .  A
C1121     Br1128   1.920       .  S
C1122      C1123   1.405       .  A
C1122      H1127   1.083       .  S
C1123      C1124   1.411       .  A
C1124     Br1125   1.919       .  S
C1129      C1130   1.402       .  A
C1129      C1134   1.396       .  A
C1129      H1136   1.084       .  S
C1130      C1131   1.411       .  A
C1131      C1132   1.402       .  A
C1131     Br1138   1.919       .  S
C1132      C1133   1.406       .  A
C1132      H1137   1.083       .  S
C1133      C1134   1.413       .  A
C1134     Br1135   1.921       .  S
C1139      C1140   1.402       .  A
C1139      C1144   1.398       .  A
C1139      H1146   1.084       .  S
C1140      C1141   1.407       .  A
C1141      C1142   1.399       .  A
C1141     Br1148   1.918       .  S
C1142      C1143   1.405       .  A
C1142      H1147   1.084       .  S
C1143      C1144   1.411       .  A
C1144     Br1145   1.920       .  S
C1149      C1150   1.405       .  A
C1149      C1154   1.397       .  A
C1149      H1156   1.083       .  S
C1150      C1151   1.413       .  A
C1151      C1152   1.403       .  A
C1151     Br1158   1.919       .  S
C1152      C1153   1.405       .  A
C1152      H1157   1.083       .  S
C1153      C1154   1.410       .  A
C1154     Br1155   1.920       .  S
C1159      C1160   1.407       .  A
C1159      C1164   1.400       .  A
C1159      H1166   1.083       .  S
C1160      C1161   1.417       .  A
C1161      C1162   1.400       .  A
C1161     Br1168   1.920       .  S
C1162      C1163   1.403       .  A
C1162      H1167   1.084       .  S
C1163      C1164   1.410       .  A
C1164     Br1165   1.919       .  S
C1169      C1170   1.404       .  A
C1169      C1174   1.398       .  A
C1169      H1176   1.083       .  S
C1170      C1171   1.411       .  A
C1171      C1172   1.399       .  A
C1171     Br1178   1.921       .  S
C1172      C1173   1.403       .  A
C1172      H1177   1.083       .  S
C1173      C1174   1.410       .  A
C1174     Br1175   1.920       .  S
C1179      C1180   1.401       .  A
C1179      C1184   1.401       .  A
C1179      H1186   1.084       .  S
C1180      C1181   1.407       .  A
C1181      C1182   1.394       .  A
C1181     Br1188   1.920       .  S
C1182      C1183   1.403       .  A
C1182      H1187   1.084       .  S
C1183      C1184   1.413       .  A
C1184     Br1185   1.918       .  S
C1189      C1190   1.404       .  A
C1189      C1194   1.397       .  A
C1189      H1196   1.083       .  S
C1190      C1191   1.413       .  A
C1191      C1192   1.402       .  A
C1191     Br1198   1.920       .  S
C1192      C1193   1.405       .  A
C1192      H1197   1.083       .  S
C1193      C1194   1.412       .  A
C1194     Br1195   1.920       .  S
C1199      C1200   1.404       .  A
C1199      C1204   1.403       .  A
C1199      H1206   1.084       .  S
C1200      C1201   1.409       .  A
C1201      C1202   1.395       .  A
C1201     Br1208   1.921       .  S
C1202      C1203   1.404       .  A
C1202      H1207   1.083       .  S
C1203      C1204   1.414       .  A
C1204     Br1205   1.918       .  S
C1209      C1210   1.402       .  A
C1209      C1214   1.396   1_556  A
C1209      H1216   1.084       .  S
C1210      C1211   1.408   1_556  A
C1211      C1212   1.400       .  A
C1211     Br1218   1.919       .  S
C1212      C1213   1.404       .  A
C1212      H1217   1.083       .  S
C1213      C1214   1.408       .  A
C1214     Br1215   1.920       .  S
C1219      C1220   1.400       .  A
C1219      C1224   1.398       .  A
C1219      H1226   1.084       .  S
C1220      C1221   1.404       .  A
C1221      C1222   1.395       .  A
C1221     Br1228   1.919       .  S
C1222      C1223   1.405       .  A
C1222      H1227   1.083       .  S
C1223      C1224   1.411       .  A
C1224     Br1225   1.919   1_556  S
C1229      C1230   1.402       .  A
C1229      C1234   1.396       .  A
C1229      H1236   1.084       .  S
C1230      C1231   1.408       .  A
C1231      C1232   1.399       .  A
C1231     Br1238   1.919       .  S
C1232      C1233   1.406       .  A
C1232      H1237   1.083       .  S
C1233      C1234   1.410       .  A
C1234     Br1235   1.920       .  S
C1239      C1240   1.403       .  A
C1239      C1244   1.400       .  A
C1239      H1246   1.083       .  S
C1240      C1241   1.410       .  A
C1241      C1242   1.395       .  A
C1241     Br1248   1.921       .  S
C1242      C1243   1.402       .  A
C1242      H1247   1.084       .  S
C1243      C1244   1.410       .  A
C1244     Br1245   1.918       .  S
