geometry optimzed in LAMMPS
_audit_creation_date              2020-12-01 
_audit_creation_method            'lammps2cif' 
_symmetry_space_group_name_H-M    'P1' 
_symmetry_Int_Tables_number       1 
_symmetry_cell_setting            triclinic 
loop_ 
_symmetry_equiv_pos_as_xyz 
  x,y,z 
_cell_length_a                    39.33908747 
_cell_length_b                    39.368957758741196 
_cell_length_c                    51.8578904748846 
_cell_angle_alpha                 89.96357391452756 
_cell_angle_beta                  90.06598511938992 
_cell_angle_gamma                 119.84829418319244 
loop_ 
_atom_site_label 
_atom_site_type_symbol 
_atom_site_fract_x 
_atom_site_fract_y 
_atom_site_fract_z 
_atom_site_charge 
In1        In  0.06998733  0.34344284  0.12955354     1.36900
C2          C  0.11231357  0.34471969  0.16980864     0.77800
O3          O  0.02162463  0.32747871  0.15794067    -0.60600
O4          O  0.01241994  0.28631630  0.12858059    -0.51500
C5          C  0.06105737  0.40212992  0.11203326     0.70500
O6          O  0.07793321  0.40359352  0.13299858    -0.46400
C7          C  0.11155201  0.33214880  0.09346339     0.75200
O8          O  0.11512903  0.37550149  0.16025741    -0.58200
O9          O  0.07601881  0.30756381  0.09778533    -0.48300
O10         O  0.08797539  0.31347789  0.15874686    -0.54700
C11         C  0.99945566  0.29389543  0.14875344     0.85400
O12         O  0.04879725  0.37050170  0.09973884    -0.56500
O13         O  0.12494211  0.36290239  0.10677934    -0.59800
In14       In  0.30027071  0.34392514  0.36915715     1.36900
C15         C  0.26012660  0.34480573  0.32817829     0.77800
O16         O  0.33385054  0.32408055  0.34458985    -0.60600
O17         O  0.29398354  0.28395233  0.37169360    -0.51500
C18         C  0.36830051  0.40436267  0.38523572     0.70500
O19         O  0.35394336  0.40302676  0.36327517    -0.46400
C20         C  0.24910477  0.33462488  0.40602645     0.75200
O21         O  0.28711939  0.37567232  0.33825463    -0.58200
O22         O  0.26585468  0.31441603  0.40510375    -0.48300
O23         O  0.25420057  0.31354412  0.33882911    -0.54700
C24         C  0.31760357  0.28977777  0.35356740     0.85400
O25         O  0.34782138  0.37444876  0.39878172    -0.56500
O26         O  0.25868793  0.35945853  0.38819610    -0.59800
In27       In  0.29666217  0.94348434  0.79149121     1.36900
C28         C  0.25845449  0.90224983  0.83305990     0.77800
O29         O  0.32639792  0.99162541  0.81987224    -0.60600
O30         O  0.29482440  0.00005412  0.78980991    -0.51500
C31         C  0.36507039  0.95364810  0.77450547     0.70500
O32         O  0.34437445  0.92846908  0.79117855    -0.46400
C33         C  0.24768434  0.90365137  0.75332989     0.75200
O34         O  0.29257473  0.90955732  0.82742226    -0.58200
O35         O  0.25169531  0.93556474  0.76161928    -0.48300
O36         O  0.24313329  0.91431084  0.81677938    -0.54700
C37         C  0.31423880  0.01305614  0.81038900     0.85400
O38         O  0.35027889  0.97358174  0.76616606    -0.56500
O39         O  0.26921208  0.89266727  0.76423845    -0.59800
In40       In  0.07326435  0.71486923  0.03392510     1.36900
C41         C  0.11272237  0.75566173  0.99268826     0.77800
O42         O  0.02386214  0.68390718  0.00587941    -0.60600
O43         O  0.01877407  0.72055447  0.03375213    -0.51500
C44         C  0.06853183  0.64833091  0.05022156     0.70500
O45         O  0.09292418  0.67031062  0.03362116    -0.46400
C46         C  0.11374220  0.76327190  0.07254254     0.75200
O47         O  0.10855897  0.72253474  0.99821133    -0.58200
O48         O  0.07681106  0.74644098  0.07127179    -0.48300
O49         O  0.09741618  0.76801986  0.00878323    -0.54700
C50         C  0.00475821  0.69969087  0.01382907     0.85400
O51         O  0.04545611  0.65969039  0.05798337    -0.56500
O52         O  0.12943433  0.75500039  0.05429784    -0.59800
In53       In  0.66971345  0.94243937  0.70433859     1.36900
C54         C  0.66808007  0.89903933  0.66439686     0.77800
O55         O  0.68900453  0.99039717  0.67519772    -0.60600
O56         O  0.72850147  0.99801548  0.70535039    -0.51500
C57         C  0.61105381  0.95336735  0.71988915     0.70500
O58         O  0.60769224  0.92975597  0.70234904    -0.46400
C59         C  0.67818529  0.90184530  0.74257623     0.75200
O60         O  0.64017181  0.90497312  0.66971382    -0.58200
O61         O  0.70296048  0.93724974  0.73818465    -0.48300
O62         O  0.69653263  0.91507527  0.67982165    -0.54700
C63         C  0.72232963  0.01169271  0.68499335     0.85400
O64         O  0.64482206  0.97133860  0.72975594    -0.56500
O65         O  0.64816582  0.88821546  0.72843625    -0.59800
In66       In  0.67045246  0.71470033  0.46286277     1.36900
C67         C  0.66574682  0.75135559  0.50468876     0.77800
O68         O  0.68878735  0.68134804  0.48889024    -0.60600
O69         O  0.73097398  0.72141730  0.46291886    -0.51500
C70         C  0.61243650  0.64719043  0.44492917     0.70500
O71         O  0.60952763  0.66392580  0.46478993    -0.46400
C72         C  0.67845452  0.76711778  0.42739364     0.75200
O73         O  0.63748848  0.71976571  0.49645787    -0.58200
O74         O  0.70154866  0.75359075  0.42856423    -0.48300
O75         O  0.69639041  0.76433993  0.49119328    -0.54700
C76         C  0.72371836  0.69750758  0.48112769     0.85400
O77         O  0.64528732  0.66531564  0.43386625    -0.56500
O78         O  0.65053473  0.75217089  0.44320599    -0.59800
In79       In  0.95982252  0.28411570  0.53935573     1.36900
C80         C  0.91746469  0.24626985  0.49806310     0.77800
O81         O  0.01584440  0.32169455  0.51775751    -0.60600
O82         O  0.00969946  0.27155654  0.53711995    -0.51500
C83         C  0.96455824  0.35101566  0.55527721     0.70500
O84         O  0.94952891  0.33464578  0.53415889    -0.46400
C85         C  0.91933922  0.23429274  0.57723962     0.75200
O86         O  0.91473006  0.27341332  0.50900124    -0.58200
O87         O  0.95625510  0.25422064  0.57748712    -0.48300
O88         O  0.94248423  0.23902858  0.50790435    -0.54700
C89         C  0.03049225  0.30028808  0.52264649     0.85400
O90         O  0.97868495  0.33364703  0.56808215    -0.56500
O91         O  0.90376516  0.24053883  0.55799551    -0.59800
In92       In  0.72728592  0.06046791  0.29831858     1.36900
C93         C  0.76638592  0.10418573  0.33896839     0.77800
O94         O  0.69297761  0.00783956  0.32371066    -0.60600
O95         O  0.73662108  0.00861276  0.29925468    -0.51500
C96         C  0.65816141  0.04861231  0.28073708     0.70500
O97         O  0.67333465  0.06595581  0.30163184    -0.46400
C98         C  0.77776526  0.10117022  0.26059994     0.75200
O99         O  0.74009855  0.10798739  0.32763360    -0.58200
O100        O  0.76662291  0.06560531  0.26488062    -0.48300
O101        O  0.77255085  0.07834334  0.32950984    -0.54700
C102        C  0.71193177  0.99124522  0.31695398     0.85400
O103        O  0.67792311  0.03604806  0.26920185    -0.56500
O104        O  0.76225471  0.11510138  0.27525382    -0.59800
In105      In  0.35635122  0.27931380  0.96630443     1.36900
C106        C  0.35799407  0.23918438  0.00719544     0.77800
O107        O  0.33931507  0.31058017  0.99518402    -0.60600
O108        O  0.29893587  0.27911554  0.96551387    -0.51500
C109        C  0.41489105  0.34794665  0.94940121     0.70500
O110        O  0.41806307  0.32975229  0.96840121    -0.46400
C111        C  0.34350637  0.22775090  0.92868630     0.75200
O112        O  0.38862420  0.26726844  0.99768701    -0.58200
O113        O  0.32053717  0.24065949  0.93325970    -0.48300
O114        O  0.32693931  0.23064657  0.99510400    -0.54700
C115        C  0.30585338  0.29938525  0.98570952     0.85400
O116        O  0.38172165  0.33062233  0.93871884    -0.56500
O117        O  0.37364685  0.24238815  0.94272917    -0.59800
In118      In  0.34861890  0.04982421  0.20872195     1.36900
C119        C  0.35407826  0.09001138  0.16602720     0.77800
O120        O  0.32925920  0.99315087  0.18790543    -0.60600
O121        O  0.28555500  0.00138675  0.20585449    -0.51500
C122        C  0.40799283  0.04000106  0.22428237     0.70500
O123        O  0.40840306  0.05703752  0.20361911    -0.46400
C124        C  0.33967275  0.09039019  0.24676650     0.75200
O125        O  0.38377425  0.09428197  0.17809847    -0.58200
O126        O  0.31904192  0.05366530  0.24513285    -0.48300
O127        O  0.32183823  0.06650888  0.17635670    -0.54700
C128        C  0.29323343  0.97962576  0.19211406     0.85400
O129        O  0.37684153  0.02763477  0.23717726    -0.56500
O130        O  0.36510666  0.10596407  0.22936259    -0.59800
In131      In  0.72286910  0.65410415  0.87145949     1.36900
C132        C  0.76107483  0.65391871  0.82932899     0.77800
O133        O  0.68791485  0.67096662  0.84573074    -0.60600
O134        O  0.72843977  0.71404128  0.87134564    -0.51500
C135        C  0.65561816  0.59367916  0.88820928     0.70500
O136        O  0.67527766  0.59104173  0.86995479    -0.46400
C137        C  0.77270631  0.66232780  0.90953705     0.75200
O138        O  0.73232290  0.62322318  0.83815056    -0.58200
O139        O  0.75853746  0.68474383  0.90724391    -0.48300
O140        O  0.77099967  0.68436925  0.84244695    -0.54700
C141        C  0.70382405  0.70597007  0.85341502     0.85400
O142        O  0.66971768  0.62777260  0.89731066    -0.56500
O143        O  0.76138169  0.63628454  0.89244244    -0.59800
In144      In  0.95004864  0.65191879  0.63169004     1.36900
C145        C  0.90909102  0.65494395  0.67132467     0.77800
O146        O  0.99811783  0.66891270  0.66048147    -0.60600
O147        O  0.00745767  0.70856856  0.63022223    -0.51500
C148        C  0.95688999  0.59023862  0.61786521     0.70500
O149        O  0.93715246  0.59032511  0.63690726    -0.46400
C150        C  0.91195250  0.66254605  0.59300958     0.75200
O151        O  0.90646132  0.62339166  0.66355085    -0.58200
O152        O  0.94759979  0.68611641  0.59765327    -0.48300
O153        O  0.93125991  0.68464295  0.65806603    -0.54700
C154        C  0.02042460  0.70204038  0.65080899     0.85400
O155        O  0.97357079  0.62233666  0.60577922    -0.56500
O156        O  0.89647752  0.63275450  0.60730164    -0.59800
C157        C  0.80614037  0.67830958  0.76249030    -0.22200
C158        C  0.82301417  0.65433610  0.76132186     0.09800
C159        C  0.81937186  0.63013808  0.78244541     0.10200
C160        C  0.79813501  0.62995054  0.80422240    -0.17100
C161        C  0.78152771  0.65422702  0.80553230    -0.27500
C162        C  0.78538536  0.67862178  0.78435875     0.18500
C163        C  0.84447433  0.65511465  0.73776288     0.12500
C164        C  0.83850780  0.60516296  0.78215518    -0.11900
H165        H  0.79524664  0.61148887  0.82055261     0.12800
C166        C  0.76711959  0.70442175  0.78374323    -0.22700
H167        H  0.80898910  0.69672384  0.74613372     0.08400
C168        C  0.82583400  0.62797322  0.71765398     0.04700
C169        C  0.84785147  0.62873502  0.69620091    -0.20000
C170        C  0.88778353  0.65663076  0.69415627    -0.12200
C171        C  0.90628645  0.68447705  0.71414115     0.13400
C172        C  0.88419212  0.68334867  0.73566846    -0.22700
C173        C  0.78267769  0.59856985  0.71874107    -0.05700
H174        H  0.83374417  0.60768103  0.68078881     0.15000
C175        C  0.94936929  0.71463269  0.71421216    -0.15900
H176        H  0.89823247  0.70416565  0.75122084     0.09300
H177        H  0.74692464  0.69625888  0.76699539     0.07200
H178        H  0.79044759  0.73548835  0.78164560     0.08400
H179        H  0.74992943  0.70187371  0.80123797     0.07400
H180        H  0.87067406  0.62408287  0.77980393     0.02300
H181        H  0.82685105  0.58402517  0.76593311     0.02800
H182        H  0.83306426  0.58830519  0.80033933     0.06300
H183        H  0.77270019  0.57974327  0.70128063     0.05200
H184        H  0.76571153  0.61412959  0.72010474    -0.00500
H185        H  0.77617903  0.57934256  0.73582764     0.01000
H186        H  0.95293545  0.74444194  0.71400701     0.04600
H187        H  0.96578424  0.71208864  0.69774564     0.06600
H188        H  0.96317011  0.71129680  0.73200715     0.07400
C189        C  0.57233314  0.52037505  0.93121848    -0.22200
C190        C  0.54943609  0.49130678  0.91325714     0.09800
C191        C  0.56106572  0.49625539  0.88720303     0.10200
C192        C  0.59548578  0.53027054  0.87968808    -0.17100
C193        C  0.61900668  0.55932306  0.89768676    -0.27500
C194        C  0.60744426  0.55387552  0.92399706     0.18500
C195        C  0.51489998  0.45469821  0.92251201     0.12500
C196        C  0.53758487  0.46517524  0.86749665    -0.11900
H197        H  0.60425966  0.53404104  0.85960684     0.12800
C198        C  0.63205250  0.58084923  0.94544398    -0.22700
H199        H  0.56356880  0.51600351  0.95132138     0.08400
C200        C  0.51934783  0.42484863  0.93426289     0.04700
C201        C  0.48609042  0.39086773  0.94305801    -0.20000
C202        C  0.44820810  0.38557118  0.94015941    -0.12200
C203        C  0.44383329  0.41583499  0.92842869     0.13400
C204        C  0.47731074  0.44980908  0.91959437    -0.22700
C205        C  0.55918145  0.42852604  0.93703127    -0.05700
H206        H  0.48969860  0.36787759  0.95186457     0.15000
C207        C  0.40507509  0.41462867  0.92565023    -0.15900
H208        H  0.47414340  0.47301216  0.91068443     0.09300
H209        H  0.63672453  0.56350760  0.96050568     0.07200
H210        H  0.61645328  0.59494505  0.95423778     0.08400
H211        H  0.66152753  0.60382604  0.93939367     0.07400
H212        H  0.50745774  0.46072697  0.86634288     0.02300
H213        H  0.53599133  0.43719157  0.87310914     0.02800
H214        H  0.55094635  0.47337722  0.84801191     0.06300
H215        H  0.55741170  0.40219273  0.94620617     0.05200
H216        H  0.57831365  0.45428993  0.94917246    -0.00500
H217        H  0.57274513  0.43220101  0.91771673     0.01000
H218        H  0.40730777  0.44143517  0.93435830     0.04600
H219        H  0.38048292  0.38955395  0.93544887     0.06600
H220        H  0.39784591  0.41384442  0.90487451     0.07400
C221        C  0.33286484  0.18835605  0.07251245    -0.22200
C222        C  0.36071864  0.17619970  0.07421590     0.09800
C223        C  0.38762824  0.18471809  0.05391536     0.10200
C224        C  0.38645602  0.20593526  0.03245152    -0.17100
C225        C  0.35847043  0.21808037  0.03064695    -0.27500
C226        C  0.33152573  0.20950067  0.05112793     0.18500
C227        C  0.36076896  0.15433008  0.09746122     0.12500
C228        C  0.41703575  0.17082753  0.05474439    -0.11900
H229        H  0.40696810  0.21240422  0.01675487     0.12800
C230        C  0.30202035  0.22337401  0.05181839    -0.22700
H231        H  0.31236422  0.18180579  0.08824042     0.08400
C232        C  0.38406226  0.17363875  0.11918147     0.04700
C233        C  0.38219914  0.15164367  0.14102325    -0.20000
C234        C  0.35677460  0.11098861  0.14184114    -0.12200
C235        C  0.33370849  0.09162918  0.11990012     0.13400
C236        C  0.33590663  0.11368156  0.09805560    -0.22700
C237        C  0.41000338  0.21749965  0.11953348    -0.05700
H238        H  0.39972929  0.16639769  0.15785495     0.15000
C239        C  0.30738253  0.04779260  0.11838098    -0.15900
H240        H  0.31814923  0.09903017  0.08127447     0.09300
H241        H  0.30602172  0.24023768  0.06982037     0.07200
H242        H  0.27192158  0.19768848  0.05163368     0.08400
H243        H  0.30484758  0.24291177  0.03563247     0.07400
H244        H  0.40148375  0.13838441  0.05611142     0.02300
H245        H  0.43649755  0.18344439  0.07174550     0.02800
H246        H  0.43564292  0.17963575  0.03718498     0.06300
H247        H  0.42591399  0.22794521  0.13812923     0.05200
H248        H  0.39193112  0.23167561  0.11671584    -0.00500
H249        H  0.43201324  0.22683787  0.10385262     0.01000
H250        H  0.27644845  0.04072283  0.11628489     0.04600
H251        H  0.30957734  0.03195692  0.13536387     0.06600
H252        H  0.31551062  0.03640725  0.10128090     0.07400
C253        C  0.47388578  0.00297626  0.25203163    -0.22200
C254        C  0.51102332  0.03582282  0.24799354     0.09800
C255        C  0.51385412  0.06952913  0.23632190     0.10200
C256        C  0.47959982  0.06949306  0.22873615    -0.17100
C257        C  0.44231810  0.03680076  0.23278194    -0.27500
C258        C  0.43942240  0.00286401  0.24448531     0.18500
C259        C  0.54678065  0.03514399  0.25663254     0.12500
C260        C  0.55301126  0.10599066  0.23244690    -0.11900
H261        H  0.48193530  0.09555212  0.21991752     0.12800
C262        C  0.40104765  0.96551871  0.24844770    -0.22700
H263        H  0.47180870  0.97706160  0.26090763     0.08400
C264        C  0.55773295  0.03962140  0.28283350     0.04700
C265        C  0.59377803  0.04300557  0.28985650    -0.20000
C266        C  0.62000144  0.04326684  0.27130421    -0.12200
C267        C  0.60913658  0.03946220  0.24483639     0.13400
C268        C  0.57211542  0.03405860  0.23807176    -0.22700
C269        C  0.53202462  0.04226021  0.30332142    -0.05700
H270        H  0.60180321  0.04614501  0.31007617     0.15000
C271        C  0.63614710  0.04378827  0.22287103    -0.15900
H272        H  0.56384917  0.03130875  0.21789359     0.09300
H273        H  0.39598362  0.95917695  0.26939705     0.07200
H274        H  0.40232176  0.94092958  0.23891095     0.08400
H275        H  0.37552433  0.96630792  0.24022025     0.07400
H276        H  0.57138550  0.09983617  0.21917577     0.02300
H277        H  0.56824625  0.11614279  0.25127726     0.02800
H278        H  0.54983216  0.13017472  0.22396699     0.06300
H279        H  0.54540966  0.04678264  0.32278637     0.05200
H280        H  0.50329344  0.01478594  0.30375732    -0.00500
H281        H  0.52733057  0.06729179  0.29912819     0.01000
H282        H  0.62451168  0.01544419  0.21256207     0.04600
H283        H  0.66667765  0.05397014  0.22875938     0.06600
H284        H  0.63754531  0.06608828  0.20910341     0.07400
C285        C  0.94376727  0.43564584  0.56268390    -0.22200
C286        C  0.96806533  0.45602320  0.58345585     0.09800
C287        C  0.99108499  0.44200393  0.59511687     0.10200
C288        C  0.98947456  0.40783469  0.58548292    -0.17100
C289        C  0.96532270  0.38730561  0.56440933    -0.27500
C290        C  0.94189078  0.40148175  0.55300097     0.18500
C291        C  0.96755359  0.49120671  0.59308248     0.12500
C292        C  0.01741911  0.46327360  0.61759503    -0.11900
H293        H  0.00730000  0.39719903  0.59445887     0.12800
C294        C  0.91402029  0.38060483  0.53105462    -0.22700
H295        H  0.92584614  0.44652912  0.55411584     0.08400
C296        C  0.98872855  0.52776920  0.58068651     0.04700
C297        C  0.98488376  0.55947526  0.58936078    -0.20000
C298        C  0.96023512  0.55554870  0.61016863    -0.12200
C299        C  0.93929280  0.51864030  0.62274379     0.13400
C300        C  0.94333049  0.48708376  0.61396952    -0.22700
C301        C  0.01536237  0.53323786  0.55831082    -0.05700
H302        H  0.00112576  0.58745971  0.57965480     0.15000
C303        C  0.91215102  0.51163949  0.64514110    -0.15900
H304        H  0.92699183  0.45869910  0.62318555     0.09300
H305        H  0.93057580  0.38033230  0.51382107     0.07200
H306        H  0.89722721  0.39526629  0.52540661     0.08400
H307        H  0.89251364  0.35017533  0.53686878     0.07400
H308        H  0.99967637  0.46418443  0.63393045     0.02300
H309        H  0.03905939  0.49367892  0.61182409     0.02800
H310        H  0.03373603  0.44865145  0.62436244     0.06300
H311        H  0.03015735  0.56379677  0.55097533     0.05200
H312        H  0.99816686  0.51348448  0.54225002    -0.00500
H313        H  0.03827953  0.52631315  0.56446379     0.01000
H314        H  0.88825350  0.51720527  0.63914680     0.04600
H315        H  0.92880162  0.53104836  0.66148185     0.06600
H316        H  0.89825238  0.48097488  0.65221723     0.07400
C317        C  0.83205425  0.19139972  0.45172054    -0.22200
C318        C  0.85127347  0.18685983  0.43040253     0.09800
C319        C  0.89199161  0.20103159  0.43161694     0.10200
C320        C  0.91270035  0.21980718  0.45413265    -0.17100
C321        C  0.89362115  0.22486891  0.47540407    -0.27500
C322        C  0.85256581  0.20974002  0.47437697     0.18500
C323        C  0.82799737  0.16561136  0.40738010     0.12500
C324        C  0.91344346  0.19605885  0.40919798    -0.11900
H325        H  0.94405878  0.23108568  0.45501810     0.12800
C326        C  0.82901475  0.21057890  0.49705087    -0.22700
H327        H  0.80062288  0.17971570  0.45087078     0.08400
C328        C  0.80774946  0.12434349  0.40635108     0.04700
C329        C  0.78804940  0.10539005  0.38365048    -0.20000
C330        C  0.78739976  0.12666078  0.36211831    -0.12200
C331        C  0.80737969  0.16810505  0.36322360     0.13400
C332        C  0.82735710  0.18702329  0.38594137    -0.22700
C333        C  0.80720908  0.10034112  0.42914275    -0.05700
H334        H  0.77276653  0.07366452  0.38274151     0.15000
C335        C  0.80989784  0.19338351  0.34064000    -0.15900
H336        H  0.84321547  0.21875806  0.38678253     0.09300
H337        H  0.80539938  0.18029486  0.50143037     0.07200
H338        H  0.81544366  0.22865329  0.49220297     0.08400
H339        H  0.84648087  0.22224148  0.51489103     0.07400
H340        H  0.91064724  0.21126500  0.39198106     0.02300
H341        H  0.90079716  0.16444471  0.40477602     0.02800
H342        H  0.94513202  0.20845970  0.41340349     0.06300
H343        H  0.79030520  0.06844652  0.42499858     0.05200
H344        H  0.79339941  0.10628091  0.44589513    -0.00500
H345        H  0.83761853  0.10803119  0.43427025     0.01000
H346        H  0.79648724  0.21143762  0.34593651     0.04600
H347        H  0.79505716  0.17639119  0.32311983     0.06600
H348        H  0.84115644  0.21318516  0.33562971     0.07400
C349        C  0.73231000  0.91878053  0.35264329    -0.22200
C350        C  0.69426430  0.88784107  0.35685206     0.09800
C351        C  0.66201655  0.89028778  0.34716708     0.10200
C352        C  0.66865991  0.92401889  0.33361267    -0.17100
C353        C  0.70681892  0.95540204  0.32972996    -0.27500
C354        C  0.73908711  0.95285694  0.33968083     0.18500
C355        C  0.68913374  0.85566534  0.37418237     0.12500
C356        C  0.62071481  0.85753358  0.35146356    -0.11900
H357        H  0.64395839  0.92615000  0.32630211     0.12800
C358        C  0.78084258  0.98621541  0.33884337    -0.22700
H359        H  0.75689214  0.91712452  0.36072255     0.08400
C360        C  0.69282156  0.82372817  0.36540776     0.04700
C361        C  0.69016441  0.79551772  0.38324318    -0.20000
C362        C  0.68380016  0.79868165  0.40956960    -0.12200
C363        C  0.68118604  0.83139976  0.41833883     0.13400
C364        C  0.68335601  0.85908397  0.40045679    -0.22700
C365        C  0.69914439  0.81936441  0.33726278    -0.05700
H366        H  0.69232370  0.77057114  0.37657340     0.15000
C367        C  0.67793547  0.83929849  0.44645938    -0.15900
H368        H  0.68156080  0.88423620  0.40716619     0.09300
H369        H  0.79902797  0.97728622  0.32751299     0.07200
H370        H  0.79264845  0.99341751  0.35878940     0.08400
H371        H  0.78410570  0.01346213  0.33043372     0.07400
H372        H  0.61447857  0.85313374  0.37244687     0.02300
H373        H  0.61704686  0.83005372  0.34291911     0.02800
H374        H  0.59888288  0.86392893  0.34244876     0.06300
H375        H  0.70103369  0.79256792  0.33356163     0.05200
H376        H  0.72686153  0.84506759  0.33065776    -0.00500
H377        H  0.67436804  0.81741550  0.32581059     0.01000
H378        H  0.70213028  0.86896034  0.45158157     0.04600
H379        H  0.68024256  0.81856018  0.45976446     0.06600
H380        H  0.64955781  0.83820442  0.44989327     0.07400
C381        C  0.81876901  0.69770286  0.49786224    -0.22200
C382        C  0.80884450  0.67909727  0.52191994     0.09800
C383        C  0.77085365  0.66516467  0.53184248     0.10200
C384        C  0.74356227  0.67032850  0.51750507    -0.17100
C385        C  0.75348748  0.69008127  0.49368145    -0.27500
C386        C  0.79167211  0.70363614  0.48361245     0.18500
C387        C  0.83910718  0.67655254  0.53743578     0.12500
C388        C  0.75946165  0.64582060  0.55795548    -0.11900
H389        H  0.71459991  0.65996246  0.52549468     0.12800
C390        C  0.80436774  0.72450461  0.45808183    -0.22700
H391        H  0.84815517  0.70839344  0.49051650     0.08400
C392        C  0.84296070  0.64281594  0.53718884     0.04700
C393        C  0.86793698  0.63952168  0.55513634    -0.20000
C394        C  0.88941152  0.66944713  0.57303295    -0.12200
C395        C  0.88639915  0.70383390  0.57267219     0.13400
C396        C  0.86152533  0.70701252  0.55465888    -0.22700
C397        C  0.82029423  0.61020824  0.51825130    -0.05700
H398        H  0.87030722  0.61323944  0.55547335     0.15000
C399        C  0.90669867  0.73667321  0.59191424    -0.15900
H400        H  0.85810890  0.73270487  0.55487565     0.09300
H401        H  0.83457409  0.73151192  0.45292434     0.07200
H402        H  0.80416646  0.75256773  0.45896436     0.08400
H403        H  0.78437044  0.70567785  0.44258809     0.07400
H404        H  0.77863251  0.66655284  0.57302985     0.02300
H405        H  0.76266009  0.61936724  0.55825758     0.02800
H406        H  0.72860544  0.63668852  0.56285821     0.06300
H407        H  0.82689065  0.58602313  0.52053786     0.05200
H408        H  0.82809536  0.62168459  0.49828172    -0.00500
H409        H  0.78835454  0.59800194  0.52113312     0.01000
H410        H  0.92683442  0.76416708  0.58158849     0.04600
H411        H  0.92380078  0.73126505  0.60663953     0.06600
H412        H  0.88445989  0.74094628  0.60233792     0.07400
C413        C  0.72126483  0.85182502  0.78360580    -0.22200
C414        C  0.68782168  0.82410514  0.79679116     0.09800
C415        C  0.65209843  0.82375746  0.79338361     0.10200
C416        C  0.65040142  0.85056129  0.77627075    -0.17100
C417        C  0.68351242  0.87750017  0.76223066    -0.27500
C418        C  0.71955904  0.87804198  0.76596623     0.18500
C419        C  0.69000815  0.79309856  0.81177013     0.12500
C420        C  0.61557752  0.79433442  0.80725216    -0.11900
H421        H  0.62277752  0.84990415  0.77339465     0.12800
C422        C  0.75618557  0.90337559  0.75059046    -0.22700
H423        H  0.74849193  0.85149451  0.78602394     0.08400
C424        C  0.68576832  0.75931700  0.79941145     0.04700
C425        C  0.68876418  0.73088014  0.81392926    -0.20000
C426        C  0.69643717  0.73542993  0.84056465    -0.12200
C427        C  0.69941872  0.76885163  0.85312829     0.13400
C428        C  0.69654784  0.79742963  0.83844717    -0.22700
C429        C  0.67857043  0.75350668  0.77077823    -0.05700
H430        H  0.68634709  0.70543394  0.80416008     0.15000
C431        C  0.70420393  0.77499877  0.88188006    -0.15900
H432        H  0.69915414  0.82318234  0.84790631     0.09300
H433        H  0.76621198  0.88454530  0.74120493     0.07200
H434        H  0.77965293  0.92416630  0.76371543     0.08400
H435        H  0.75224026  0.92020756  0.73500544     0.07400
H436        H  0.62036490  0.79803631  0.82840521     0.02300
H437        H  0.60834410  0.76419598  0.80180838     0.02800
H438        H  0.59004371  0.79792539  0.80237366     0.06300
H439        H  0.67578050  0.72537887  0.76420675     0.05200
H440        H  0.70336058  0.77760035  0.76018763    -0.00500
H441        H  0.65104784  0.75335018  0.76577750     0.01000
H442        H  0.73294596  0.80125216  0.88617417     0.04600
H443        H  0.70206533  0.74964531  0.89248614     0.06600
H444        H  0.68055792  0.77984295  0.88945998     0.07400
C445        C  0.63616419  0.77394470  0.56981890    -0.22200
C446        C  0.66477890  0.81333166  0.57286503     0.09800
C447        C  0.69289629  0.83246606  0.55337187     0.10200
C448        C  0.69210804  0.81150689  0.53132037    -0.17100
C449        C  0.66367631  0.77185842  0.52814726    -0.27500
C450        C  0.63500909  0.75290186  0.54765474     0.18500
C451        C  0.66459581  0.83420454  0.59654854     0.12500
C452        C  0.72347435  0.87509895  0.55578104    -0.11900
H453        H  0.71387732  0.82633922  0.51638903     0.12800
C454        C  0.60359240  0.71047955  0.54568664    -0.22700
H455        H  0.61462132  0.75964354  0.58494845     0.08400
C456        C  0.63878692  0.84904176  0.59931301     0.04700
C457        C  0.64036101  0.86953322  0.62180312    -0.20000
C458        C  0.66746803  0.87598328  0.64155034    -0.12200
C459        C  0.69322675  0.86071421  0.63873584     0.13400
C460        C  0.69122219  0.83985055  0.61628133    -0.22700
C461        C  0.61012480  0.84384911  0.57828858    -0.05700
H462        H  0.62065726  0.88119525  0.62372757     0.15000
C463        C  0.72259265  0.86572857  0.65923189    -0.15900
H464        H  0.71083422  0.82814219  0.61390996     0.09300
H465        H  0.58469817  0.70048925  0.56311545     0.07200
H466        H  0.61722246  0.69179962  0.54359973     0.08400
H467        H  0.58436844  0.70626109  0.52888873     0.07400
H468        H  0.74215948  0.87950516  0.57291515     0.02300
H469        H  0.70897744  0.89297901  0.55791874     0.02800
H470        H  0.74276483  0.88577224  0.53855636     0.06300
H471        H  0.59251105  0.85785765  0.58333251     0.05200
H472        H  0.58963477  0.81219491  0.57500367    -0.00500
H473        H  0.62621641  0.85732352  0.56015376     0.01000
H474        H  0.73886023  0.85032518  0.65413077     0.04600
H475        H  0.70732683  0.85348296  0.67780419     0.06600
H476        H  0.74449718  0.89722838  0.66158765     0.07400
C477        C  0.87684320  0.15072423  0.62621237    -0.22200
C478        C  0.84041825  0.14783986  0.63082583     0.09800
C479        C  0.83218238  0.17590403  0.62023819     0.10200
C480        C  0.85944217  0.20450863  0.60358790    -0.17100
C481        C  0.89514364  0.20626972  0.59759863    -0.27500
C482        C  0.90446402  0.17953627  0.60967821     0.18500
C483        C  0.81002142  0.11329107  0.64484902     0.12500
C484        C  0.79454308  0.17549910  0.62641078    -0.11900
H485        H  0.85252037  0.22534955  0.59481432     0.12800
C486        C  0.94170281  0.17846915  0.60477653    -0.22700
H487        H  0.88303109  0.12916575  0.63465964     0.08400
C488        C  0.78136247  0.08035961  0.63131624     0.04700
C489        C  0.75269336  0.04834929  0.64516508    -0.20000
C490        C  0.75213727  0.04811895  0.67226573    -0.12200
C491        C  0.78069499  0.08150047  0.68581993     0.13400
C492        C  0.80959765  0.11346499  0.67185399    -0.22700
C493        C  0.78155092  0.07860296  0.60225733    -0.05700
H494        H  0.73109374  0.02282610  0.63470174     0.15000
C495        C  0.78093621  0.08549347  0.71473234    -0.15900
H496        H  0.83153391  0.13906105  0.68208523     0.09300
H497        H  0.93427319  0.14888397  0.59782895     0.07200
H498        H  0.95845067  0.18448400  0.62306724     0.08400
H499        H  0.96104143  0.19959390  0.59015797     0.07400
H500        H  0.79257959  0.17875159  0.64753536     0.02300
H501        H  0.76894694  0.14753566  0.62008815     0.02800
H502        H  0.79294834  0.19981156  0.61668179     0.06300
H503        H  0.75744724  0.05037654  0.59481425     0.05200
H504        H  0.80975871  0.08174406  0.59553482    -0.00500
H505        H  0.77791235  0.10251296  0.59385920     0.01000
H506        H  0.80775591  0.08686649  0.72278173     0.04600
H507        H  0.75496010  0.06145459  0.72425345     0.06600
H508        H  0.78108464  0.11299810  0.71972333     0.07400
C509        C  0.24180693  0.88056426  0.15870512    -0.22200
C510        C  0.20959647  0.88132078  0.14778166     0.09800
C511        C  0.20254844  0.91214050  0.15403059     0.10200
C512        C  0.22897242  0.94253237  0.17020296    -0.17100
C513        C  0.26254010  0.94299543  0.18001680    -0.27500
C514        C  0.26810236  0.91071315  0.17503078     0.18500
C515        C  0.18505469  0.85082485  0.12863771     0.12500
C516        C  0.16798330  0.91363248  0.14281007    -0.11900
H517        H  0.22454077  0.96712837  0.17400534     0.12800
C518        C  0.30095063  0.90667253  0.18684004    -0.22700
H519        H  0.24673453  0.85646958  0.15418460     0.08400
C520        C  0.19588916  0.85500682  0.10242135     0.04700
C521        C  0.17198850  0.82570235  0.08481513    -0.20000
C522        C  0.13751540  0.79205589  0.09273772    -0.12200
C523        C  0.12732195  0.78730606  0.11924662     0.13400
C524        C  0.15098389  0.81711197  0.13677437    -0.22700
C525        C  0.23265281  0.89051543  0.09302760    -0.05700
H526        H  0.18007789  0.82931760  0.06460192     0.15000
C527        C  0.09315631  0.75069195  0.13006800    -0.15900
H528        H  0.14321834  0.81370337  0.15704383     0.09300
H529        H  0.32141642  0.90842175  0.17149578     0.07200
H530        H  0.28862141  0.87778795  0.19656118     0.08400
H531        H  0.31757569  0.92912303  0.20168740     0.07400
H532        H  0.14038412  0.88718096  0.14873275     0.02300
H533        H  0.16991903  0.91465962  0.12143872     0.02800
H534        H  0.16684431  0.93984977  0.14948324     0.06300
H535        H  0.23669429  0.88932170  0.07191812     0.05200
H536        H  0.25858234  0.89236166  0.10289083    -0.00500
H537        H  0.23119929  0.91740754  0.09723948     0.01000
H538        H  0.10380300  0.73855479  0.14540092     0.04600
H539        H  0.07797379  0.72727507  0.11557937     0.06600
H540        H  0.07166105  0.75789857  0.13862426     0.07400
C541        C  0.93633952  0.69679326  0.96083808    -0.22200
C542        C  0.90199938  0.68616886  0.97476144     0.09800
C543        C  0.90154067  0.68033648  0.00165385     0.10200
C544        C  0.93561288  0.68536277  0.01404890    -0.17100
C545        C  0.96990908  0.69552315  0.00005184    -0.27500
C546        C  0.97042966  0.70197838  0.97308650     0.18500
C547        C  0.86672039  0.68041997  0.96048682     0.12500
C548        C  0.86511137  0.66889426  0.01719183    -0.11900
H549        H  0.93530960  0.68074768  0.03467491     0.12800
C550        C  0.00658214  0.71588542  0.95660025    -0.22700
H551        H  0.93664051  0.70147294  0.94020684     0.08400
C552        C  0.86222954  0.71228869  0.95257185     0.04700
C553        C  0.82976548  0.70532171  0.93730353    -0.20000
C554        C  0.80185017  0.66719961  0.92958704    -0.12200
C555        C  0.80515107  0.63513885  0.93909513     0.13400
C556        C  0.83794058  0.64229107  0.95392524    -0.22700
C557        C  0.89209327  0.75362707  0.95984906    -0.05700
H558        H  0.82720838  0.72993465  0.93036630     0.15000
C559        C  0.77440741  0.59295704  0.93465388    -0.23100
H560        H  0.84110095  0.61783426  0.96046437     0.09300
H561        H  0.01282824  0.74330437  0.94653836     0.07200
H562        H  0.00141639  0.69328106  0.94192930     0.08400
H563        H  0.03325880  0.72255417  0.96761789     0.07400
H564        H  0.84090222  0.64036887  0.01026867     0.02300
H565        H  0.85637163  0.69157450  0.01508762     0.02800
H566        H  0.86977015  0.66590609  0.03800692     0.06300
H567        H  0.88387937  0.77507683  0.95249818     0.05200
H568        H  0.92108081  0.76125802  0.95163409    -0.00500
H569        H  0.89454152  0.75633258  0.98117052     0.01000
H570        H  0.78637857  0.57877227  0.92192167     0.04600
H571        H  0.74699160  0.58942026  0.92619167     0.06600
H572        H  0.76614921  0.57725872  0.95341208     0.07400
C573        C  0.10636481  0.75440570  0.69757319    -0.22200
C574        C  0.12387285  0.79269215  0.68805396     0.09800
C575        C  0.10933806  0.80062168  0.66538360     0.10200
C576        C  0.07645183  0.77010141  0.65318135    -0.17100
C577        C  0.05755774  0.73177977  0.66320559    -0.27500
C578        C  0.07326750  0.72378417  0.68559924     0.18500
C579        C  0.15626874  0.82419351  0.70298274     0.12500
C580        C  0.12839071  0.84133167  0.65421149    -0.11900
H581        H  0.06487336  0.77656261  0.63606924     0.12800
C582        C  0.05541361  0.68348445  0.69738581    -0.22700
H583        H  0.11810105  0.74875473  0.71494987     0.08400
C584        C  0.14889662  0.84554118  0.72183297     0.04700
C585        C  0.18008723  0.87343742  0.73674883    -0.20000
C586        C  0.21818911  0.87955347  0.73376730    -0.12200
C587        C  0.22575950  0.85910736  0.71420045     0.13400
C588        C  0.19454245  0.83141401  0.69917129    -0.22700
C589        C  0.10786321  0.83757718  0.72700850    -0.05700
H590        H  0.17428810  0.88895145  0.75181806     0.15000
C591        C  0.26629995  0.86622749  0.70826026    -0.15900
H592        H  0.20002078  0.81510990  0.68450172     0.09300
H593        H  0.02545321  0.67425592  0.70450706     0.07200
H594        H  0.07272611  0.68273518  0.71409419     0.08400
H595        H  0.05436496  0.66226139  0.68287052     0.07400
H596        H  0.15945926  0.85120405  0.64949739     0.02300
H597        H  0.12733394  0.86196745  0.66830315     0.02800
H598        H  0.11348203  0.84244995  0.63629608     0.06300
H599        H  0.10724216  0.85657865  0.74260629     0.05200
H600        H  0.08906884  0.80659596  0.73298802    -0.00500
H601        H  0.09533338  0.84304675  0.70937743     0.01000
H602        H  0.26774720  0.83929391  0.71235713     0.04600
H603        H  0.28959080  0.89084528  0.71937609     0.06600
H604        H  0.27280562  0.87368411  0.68752335     0.07400
C605        C  0.45880989  0.98156684  0.73646098    -0.22200
C606        C  0.47525224  0.96388469  0.75158700     0.09800
C607        C  0.45641341  0.94446567  0.77452160     0.10200
C608        C  0.42084976  0.94207816  0.78141040    -0.17100
C609        C  0.40360059  0.95896498  0.76610377    -0.27500
C610        C  0.42325730  0.97950794  0.74341486     0.18500
C611        C  0.51058882  0.96332917  0.74221551     0.12500
C612        C  0.47347978  0.92558696  0.79148717    -0.11900
H613        H  0.40634852  0.92667949  0.79894503     0.12800
C614        C  0.40674433  0.99845282  0.72604458    -0.22700
H615        H  0.47357961  0.99640766  0.71884948     0.08400
C616        C  0.50753354  0.93638070  0.72321964     0.04700
C617        C  0.54089782  0.93433137  0.71632794    -0.20000
C618        C  0.57756752  0.95861426  0.72790364    -0.12200
C619        C  0.58075462  0.98653142  0.74651256     0.13400
C620        C  0.54711283  0.98837394  0.75343938    -0.22700
C621        C  0.46881741  0.90915533  0.71057339    -0.05700
H622        H  0.53804425  0.91312890  0.70193179     0.15000
C623        C  0.61915422  0.01450537  0.75920498    -0.15900
H624        H  0.54910080  0.00907943  0.76796197     0.09300
H625        H  0.42559312  0.01221583  0.70890799     0.07200
H626        H  0.40467353  0.02180252  0.73669370     0.08400
H627        H  0.37728780  0.97611756  0.71904420     0.07400
H628        H  0.50274133  0.94813770  0.79861009     0.02300
H629        H  0.47649032  0.90314046  0.78036651     0.02800
H630        H  0.45467187  0.91104542  0.80851381     0.06300
H631        H  0.47140834  0.88935775  0.69645938     0.05200
H632        H  0.45786587  0.92642223  0.70012499    -0.00500
H633        H  0.44710338  0.89078600  0.72543830     0.01000
H634        H  0.61606119  0.03460001  0.77279388     0.04600
H635        H  0.64091038  0.03275903  0.74432415     0.06600
H636        H  0.63021175  0.99793550  0.77037821     0.07400
C637        C  0.32454044  0.11224317  0.82773024    -0.22200
C638        C  0.32318958  0.10937851  0.85474521     0.09800
C639        C  0.32019680  0.07581500  0.86664241     0.10200
C640        C  0.31815369  0.04567027  0.85134199    -0.17100
C641        C  0.31926267  0.04805223  0.82430964    -0.27500
C642        C  0.32316862  0.08216626  0.81226544     0.18500
C643        C  0.32783659  0.14263627  0.87073417     0.12500
C644        C  0.31972636  0.07196859  0.89559151    -0.11900
H645        H  0.31506317  0.01962186  0.86067986     0.12800
C646        C  0.32799039  0.08893398  0.78356817    -0.22700
H647        H  0.32778283  0.13855500  0.81871934     0.08400
C648        C  0.36538724  0.17389029  0.87680303     0.04700
C649        C  0.36922779  0.20156723  0.89532723    -0.20000
C650        C  0.33647445  0.19827408  0.90847279    -0.12200
C651        C  0.29872612  0.16640292  0.90255599     0.13400
C652        C  0.29491702  0.13975545  0.88319603    -0.22700
C653        C  0.40150985  0.17708624  0.86443284    -0.05700
H654        H  0.39816218  0.22557601  0.89993726     0.15000
C655        C  0.26217117  0.15724548  0.91740392    -0.15900
H656        H  0.26625472  0.11491559  0.87902061     0.09300
H657        H  0.35526032  0.11701805  0.77966045     0.07200
H658        H  0.30268816  0.09074037  0.77568744     0.08400
H659        H  0.33058512  0.06588758  0.77306913     0.07400
H660        H  0.29387912  0.07248288  0.90366885     0.02300
H661        H  0.34688642  0.09654715  0.90387189     0.02800
H662        H  0.31809407  0.04413235  0.90166915     0.06300
H663        H  0.42867576  0.20294281  0.87159816     0.05200
H664        H  0.40009036  0.17996356  0.84321982    -0.00500
H665        H  0.40345419  0.15048625  0.86881438     0.01000
H666        H  0.24124038  0.16016437  0.90449689     0.04600
H667        H  0.26760062  0.17587817  0.93455511     0.06600
H668        H  0.24812810  0.12660933  0.92456656     0.07400
C669        C  0.15183529  0.82943898  0.93720861    -0.22200
C670        C  0.17469152  0.81697965  0.92400741     0.09800
C671        C  0.17714572  0.78462545  0.93324825     0.10200
C672        C  0.15658707  0.76532458  0.95563486    -0.17100
C673        C  0.13376825  0.77777404  0.96918673    -0.27500
C674        C  0.13122105  0.81029264  0.95966303     0.18500
C675        C  0.19594275  0.83842671  0.90053226     0.12500
C676        C  0.20147594  0.77051845  0.91943825    -0.11900
H677        H  0.15862330  0.74046678  0.96265473     0.12800
C678        C  0.10649697  0.82479995  0.97255794    -0.22700
H679        H  0.15012464  0.85430694  0.92980210     0.08400
C680        C  0.17779930  0.82912238  0.87609530     0.04700
C681        C  0.19892234  0.85077209  0.85447011    -0.20000
C682        C  0.23787628  0.88122780  0.85672018    -0.12200
C683        C  0.25582527  0.89095868  0.88139088     0.13400
C684        C  0.23464054  0.86909377  0.90292838    -0.22700
C685        C  0.13628645  0.79617862  0.87287535    -0.05700
H686        H  0.18513963  0.84354590  0.83562453     0.15000
C687        C  0.29637028  0.92511133  0.88610849    -0.15900
H688        H  0.24819113  0.87643097  0.92185413     0.09300
H689        H  0.10711474  0.84953109  0.96182870     0.07200
H690        H  0.11773418  0.83545322  0.99227438     0.08400
H691        H  0.07551568  0.80086426  0.97349952     0.07400
H692        H  0.23257932  0.79423501  0.91895592     0.02300
H693        H  0.19067178  0.76201904  0.89938310     0.02800
H694        H  0.20010095  0.74470666  0.92914339     0.06300
H695        H  0.12662384  0.79258366  0.85243654     0.05200
H696        H  0.11618904  0.80217496  0.88451493    -0.00500
H697        H  0.13396927  0.76825286  0.87942757     0.01000
H698        H  0.29476148  0.94493930  0.90067314     0.04600
H699        H  0.31015820  0.94298768  0.86872272     0.06600
H700        H  0.31561901  0.91420960  0.89364018     0.07400
C701        C  0.19296801  0.31723983  0.46920843    -0.22200
C702        C  0.15964246  0.31804497  0.46048551     0.09800
C703        C  0.15595228  0.32422159  0.43408940     0.10200
C704        C  0.18587017  0.32975421  0.41698498    -0.17100
C705        C  0.21936651  0.32900525  0.42556891    -0.27500
C706        C  0.22316746  0.32303413  0.45215081     0.18500
C707        C  0.12906821  0.31315430  0.47921794     0.12500
C708        C  0.12023253  0.32462882  0.42396503    -0.11900
H709        H  0.18287618  0.33426045  0.39666343     0.12800
C710        C  0.25912704  0.32445563  0.46356485    -0.22700
H711        H  0.19577928  0.31284544  0.48957301     0.08400
C712        C  0.09846530  0.27576750  0.48627264     0.04700
C713        C  0.06794337  0.27268085  0.50192711    -0.20000
C714        C  0.06710163  0.30614483  0.51047602    -0.12200
C715        C  0.09909413  0.34367153  0.50457491     0.13400
C716        C  0.12947717  0.34661622  0.48882843    -0.22700
C717        C  0.09737708  0.23921313  0.47651576    -0.05700
H718        H  0.04358346  0.24390746  0.50641486     0.15000
C719        C  0.10275356  0.38117960  0.51480619    -0.15900
H720        H  0.15344947  0.37529715  0.48367540     0.09300
H721        H  0.25110898  0.29549013  0.47199418     0.07200
H722        H  0.27102960  0.34682938  0.47909795     0.08400
H723        H  0.28307080  0.33251481  0.44951885     0.07400
H724        H  0.11756515  0.34855425  0.43330652     0.02300
H725        H  0.09358326  0.29618264  0.42819255     0.02800
H726        H  0.12180019  0.32938141  0.40278393     0.06300
H727        H  0.07111348  0.21231205  0.48355942     0.05200
H728        H  0.12382415  0.23852029  0.48324464    -0.00500
H729        H  0.09670860  0.23880890  0.45510961     0.01000
H730        H  0.13124413  0.39809932  0.52496980     0.04600
H731        H  0.07964420  0.37639280  0.52886712     0.06600
H732        H  0.10181300  0.39904123  0.49853657     0.07400
C733        C  0.29841871  0.13870145  0.29050353    -0.22200
C734        C  0.33290632  0.16774741  0.30206850     0.09800
C735        C  0.36850984  0.16823851  0.29772775     0.10200
C736        C  0.36940521  0.14171247  0.28006007    -0.17100
C737        C  0.33529268  0.11391219  0.26730126    -0.27500
C738        C  0.29902246  0.11164916  0.27314748     0.18500
C739        C  0.33165948  0.19984454  0.31612168     0.12500
C740        C  0.40543040  0.19670461  0.31173825    -0.11900
H741        H  0.39701785  0.14296087  0.27592252     0.12800
C742        C  0.26079350  0.08306760  0.26047415    -0.22700
H743        H  0.27108926  0.13836392  0.29407922     0.08400
C744        C  0.34228055  0.23562195  0.30367078     0.04700
C745        C  0.33921748  0.26487410  0.31703559    -0.20000
C746        C  0.32395387  0.25872708  0.34218179    -0.12200
C747        C  0.31280556  0.22249019  0.35455603     0.13400
C748        C  0.31730153  0.19369048  0.34140960    -0.22700
C749        C  0.35496601  0.24225975  0.27580005    -0.05700
H750        H  0.34714268  0.29213710  0.30722236     0.15000
C751        C  0.29596759  0.21366419  0.38140394    -0.15900
H752        H  0.30870268  0.16584235  0.35062262     0.09300
H753        H  0.24847419  0.09944608  0.25040557     0.07200
H754        H  0.23966486  0.06414604  0.27544954     0.08400
H755        H  0.26354799  0.06393732  0.24605074     0.07400
H756        H  0.40080095  0.19192170  0.33284486     0.02300
H757        H  0.41330998  0.22730174  0.30727882     0.02800
H758        H  0.43058981  0.19283981  0.30627302     0.06300
H759        H  0.36125266  0.27153265  0.26889294     0.05200
H760        H  0.33130219  0.21977865  0.26354722    -0.00500
H761        H  0.38189926  0.24030822  0.27320556     0.01000
H762        H  0.26741850  0.21296568  0.38167238     0.04600
H763        H  0.31666749  0.23628752  0.39502147     0.06600
H764        H  0.29063130  0.18469887  0.38830659     0.07400
C765        C  0.45363724  0.47762561  0.42702501    -0.22200
C766        C  0.47709851  0.50538663  0.40856579     0.09800
C767        C  0.46562803  0.49933123  0.38246468     0.10200
C768        C  0.43018970  0.46603404  0.37551200    -0.17100
C769        C  0.40600930  0.43831208  0.39400603    -0.27500
C770        C  0.41821495  0.44421112  0.42019872     0.18500
C771        C  0.51202376  0.54190258  0.41740444     0.12500
C772        C  0.49050524  0.52833373  0.36206423    -0.11900
H773        H  0.42130149  0.46175188  0.35542898     0.12800
C774        C  0.39390322  0.41630178  0.44128872    -0.22700
H775        H  0.46281016  0.48269765  0.44705823     0.08400
C776        C  0.50797584  0.57192144  0.42923497     0.04700
C777        C  0.54144282  0.60564587  0.43797746    -0.20000
C778        C  0.57902757  0.61024679  0.43526064    -0.12200
C779        C  0.58303263  0.57972014  0.42376496     0.13400
C780        C  0.54940261  0.54616951  0.41464554    -0.22700
C781        C  0.46832325  0.56855806  0.43237249    -0.05700
H782        H  0.53822988  0.62884527  0.44682636     0.15000
C783        C  0.62150563  0.58015888  0.42192021    -0.15900
H784        H  0.55222117  0.52266918  0.40590748     0.09300
H785        H  0.40763361  0.42638608  0.46056355     0.07200
H786        H  0.39079244  0.38706747  0.43784175     0.08400
H787        H  0.36455579  0.41386673  0.44193046     0.07400
H788        H  0.51970990  0.53046399  0.36140182     0.02300
H789        H  0.49427862  0.55758377  0.36656385     0.02800
H790        H  0.47701407  0.51950101  0.34262873     0.06300
H791        H  0.47051054  0.59510796  0.44147327     0.05200
H792        H  0.44941397  0.54308723  0.44478957    -0.00500
H793        H  0.45424647  0.56464080  0.41320079     0.01000
H794        H  0.61852588  0.55335495  0.43117000     0.04600
H795        H  0.64601910  0.60532098  0.43176811     0.06600
H796        H  0.62932567  0.58039402  0.40133213     0.07400
C797        C  0.21467620  0.30751930  0.00025016    -0.22200
C798        C  0.22116343  0.31871782  0.02621971     0.09800
C799        C  0.25637700  0.32607006  0.03818313     0.10200
C800        C  0.28373153  0.32055965  0.02417543    -0.17100
C801        C  0.27686476  0.30782184  0.99836890    -0.27500
C802        C  0.24212196  0.30210170  0.98607549     0.18500
C803        C  0.19022641  0.32112660  0.04107001     0.12500
C804        C  0.26491564  0.33945668  0.06584768    -0.11900
H805        H  0.31026430  0.32533931  0.03374563     0.12800
C806        C  0.23372489  0.29068131  0.95808705    -0.22700
H807        H  0.18769992  0.30243721  0.99117677     0.08400
C808        C  0.18827831  0.35587417  0.04213756     0.04700
C809        C  0.16140989  0.35802760  0.05892100    -0.20000
C810        C  0.13622547  0.32612751  0.07454723    -0.12200
C811        C  0.13761011  0.29085776  0.07292462     0.13400
C812        C  0.16434329  0.28881740  0.05596370    -0.22700
C813        C  0.21505448  0.39081808  0.02592376    -0.05700
H814        H  0.16041229  0.38501207  0.06012455     0.15000
C815        C  0.11353253  0.25556426  0.08971237    -0.15900
H816        H  0.16623308  0.26227338  0.05516933     0.09300
H817        H  0.20636926  0.28968624  0.95148779     0.07200
H818        H  0.22998369  0.26111049  0.95508545     0.08400
H819        H  0.25816908  0.31242911  0.94597673     0.07400
H820        H  0.24218994  0.31709171  0.07864490     0.02300
H821        H  0.26496515  0.36752650  0.06807996     0.02800
H822        H  0.29391502  0.34415887  0.07221195     0.06300
H823        H  0.20974849  0.41570297  0.02906450     0.05200
H824        H  0.21009900  0.38274917  0.00519533    -0.00500
H825        H  0.24607722  0.40073700  0.03085037     0.01000
H826        H  0.09385226  0.23024238  0.07739107     0.04600
H827        H  0.09549645  0.25991256  0.10419454     0.06600
H828        H  0.13337824  0.24813823  0.10049608     0.07400
C829        C  0.04822568  0.49159425  0.10923044    -0.22200
C830        C  0.05836041  0.50325896  0.08355581     0.09800
C831        C  0.06723337  0.48040419  0.06690630     0.10200
C832        C  0.06627141  0.44652946  0.07648703    -0.17100
C833        C  0.05713111  0.43536038  0.10241398    -0.27500
C834        C  0.04698888  0.45768915  0.11883617     0.18500
C835        C  0.06038342  0.54008020  0.07479200     0.12500
C836        C  0.07796080  0.49196716  0.03913635    -0.11900
H837        H  0.07395626  0.42940894  0.06390370     0.12800
C838        C  0.03348593  0.44619259  0.14628786    -0.22700
H839        H  0.04105178  0.50906459  0.12187063     0.08400
C840        C  0.02630737  0.54208654  0.06925821     0.04700
C841        C  0.02987761  0.57806622  0.06183442    -0.20000
C842        C  0.06678434  0.61194553  0.05951311    -0.12200
C843        C  0.10093125  0.60988592  0.06544794     0.13400
C844        C  0.09718020  0.57388531  0.07282214    -0.22700
C845        C  0.98633148  0.50609071  0.07066608    -0.05700
H846        H  0.00376297  0.57957850  0.05727095     0.15000
C847        C  0.14170472  0.64499441  0.06535707    -0.15900
H848        H  0.12321632  0.57227374  0.07751908     0.09300
H849        H  0.00457871  0.44432312  0.14886347     0.07200
H850        H  0.05490035  0.46873508  0.15964849     0.08400
H851        H  0.02956518  0.41729906  0.15179251     0.07400
H852        H  0.10495529  0.52106074  0.03806795     0.02300
H853        H  0.05367024  0.49344125  0.02925995     0.02800
H854        H  0.08350322  0.47059765  0.02866633     0.06300
H855        H  0.96283602  0.51253992  0.06514853     0.05200
H856        H  0.98045837  0.49434555  0.09061978    -0.00500
H857        H  0.98497341  0.48338653  0.05732931     0.01000
H858        H  0.15557647  0.64761805  0.08446873     0.04600
H859        H  0.14246411  0.67306523  0.06186179     0.06600
H860        H  0.15961173  0.64105241  0.05039039     0.07400
C861        C  0.89766625  0.20803759  0.16446583    -0.22200
C862        C  0.89978560  0.20779827  0.19146059     0.09800
C863        C  0.93389046  0.23632243  0.20406564     0.10200
C864        C  0.96501491  0.26470060  0.18941646    -0.17100
C865        C  0.96337624  0.26496543  0.16234072    -0.27500
C866        C  0.92893277  0.23645459  0.14967785     0.18500
C867        C  0.86568451  0.17847716  0.20652421     0.12500
C868        C  0.93776796  0.23634154  0.23300087    -0.11900
H869        H  0.99139466  0.28616112  0.19920264     0.12800
C870        C  0.92326907  0.23580530  0.12090420    -0.22700
H871        H  0.87117078  0.18632171  0.15491021     0.08400
C872        C  0.83841911  0.18786621  0.21709973     0.04700
C873        C  0.80966008  0.16153236  0.23409200    -0.20000
C874        C  0.80689003  0.12552405  0.24055654    -0.12200
C875        C  0.83306868  0.11522427  0.22875640     0.13400
C876        C  0.86230452  0.14204535  0.21199989    -0.22700
C877        C  0.83986632  0.22587504  0.21057222    -0.05700
H878        H  0.78941146  0.16944393  0.24260648     0.15000
C879        C  0.83133829  0.07679029  0.23417753    -0.15900
H880        H  0.88333964  0.13506781  0.20363908     0.09300
H881        H  0.89595819  0.23653027  0.11666024     0.07200
H882        H  0.92053366  0.20846536  0.11278538     0.08400
H883        H  0.94735090  0.26117652  0.11089433     0.07400
H884        H  0.93499590  0.20814842  0.23938850     0.02300
H885        H  0.91450980  0.24012940  0.24233370     0.02800
H886        H  0.96657439  0.26040155  0.23971354     0.06300
H887        H  0.81629036  0.22859124  0.22044573     0.05200
H888        H  0.83614574  0.22741719  0.18945644    -0.00500
H889        H  0.86842044  0.25105556  0.21650958     0.01000
H890        H  0.85431241  0.07406276  0.22347524     0.04600
H891        H  0.80246117  0.05218669  0.22809854     0.06600
H892        H  0.83589370  0.07431338  0.25507175     0.07400
C893        C  0.20242830  0.36991670  0.28042703    -0.22200
C894        C  0.19587734  0.34302703  0.26074013     0.09800
C895        C  0.21035925  0.31685362  0.26322539     0.10200
C896        C  0.23070000  0.31780542  0.28570475    -0.17100
C897        C  0.23751072  0.34485520  0.30547605    -0.27500
C898        C  0.22277707  0.37102559  0.30292385     0.18500
C899        C  0.17407161  0.34311978  0.23754475     0.12500
C900        C  0.20493802  0.28849963  0.24196569    -0.11900
H901        H  0.24205754  0.29785259  0.28764255     0.12800
C902        C  0.22628417  0.39936171  0.32372689    -0.22700
H903        H  0.19102221  0.38981866  0.27836780     0.08400
C904        C  0.13316077  0.31841937  0.23552617     0.04700
C905        C  0.11397240  0.31930514  0.21293723    -0.20000
C906        C  0.13470829  0.34478776  0.19259247    -0.12200
C907        C  0.17578405  0.36947140  0.19465095     0.13400
C908        C  0.19486758  0.36846531  0.21725151    -0.22700
C909        C  0.10978702  0.29160823  0.25731239    -0.05700
H910        H  0.08248426  0.30050934  0.21130998     0.15000
C911        C  0.20074150  0.39596044  0.17317638    -0.15900
H912        H  0.22635818  0.38718586  0.21892436     0.09300
H913        H  0.19665465  0.39434224  0.32861747     0.07200
H914        H  0.24439817  0.42982903  0.31658820     0.08400
H915        H  0.23923161  0.39621902  0.34187295     0.07400
H916        H  0.21890630  0.30489961  0.22401259     0.02300
H917        H  0.17326441  0.26853524  0.23833086     0.02800
H918        H  0.21840481  0.27035290  0.24693377     0.06300
H919        H  0.07805507  0.27450335  0.25260517     0.05200
H920        H  0.11330687  0.30914734  0.27489424    -0.00500
H921        H  0.12017791  0.27063307  0.26144838     0.01000
H922        H  0.21514177  0.42689619  0.17971771     0.04600
H923        H  0.18409751  0.39317344  0.15533427     0.06600
H924        H  0.22373821  0.38860829  0.16807609     0.07400
loop_ 
_geom_bond_atom_site_label_1 
_geom_bond_atom_site_label_2 
_geom_bond_distance 
_geom_bond_site_symmetry_2 
_ccdc_geom_bond_type 
In1           O3   2.235       .  S
In1           O4   2.263       .  S
In1          O12   2.258       .  S
In1           O6   2.236       .  S
In1           O8   2.247       .  S
In1           O9   2.259       .  S
In1          O10   2.238       .  S
In1          O13   2.239       .  S
C2            O8   1.262       .  A
C2           O10   1.259       .  A
C2          C906   1.472       .  S
O3           C11   1.260   1_455  A
O4           C11   1.264   1_455  A
C5           O12   1.262       .  A
C5            O6   1.260       .  A
C5          C833   1.478       .  S
C7            O9   1.263       .  A
C7           O13   1.259       .  A
C7          C810   1.481       .  S
C11         C865   1.483       .  S
In14         O16   2.239       .  S
In14         O17   2.252       .  S
In14         O25   2.250       .  S
In14         O19   2.253       .  S
In14         O21   2.244       .  S
In14         O22   2.257       .  S
In14         O23   2.242       .  S
In14         O26   2.242       .  S
C15          O21   1.262       .  A
C15          O23   1.260       .  A
C15         C897   1.475       .  S
O16          C24   1.261       .  A
O17          C24   1.261       .  A
C18          O25   1.259       .  A
C18          O19   1.260       .  A
C18         C769   1.490       .  S
C20          O22   1.262       .  A
C20          O26   1.259       .  A
C20         C705   1.480       .  S
C24         C746   1.487       .  S
In27         O29   2.218       .  S
In27         O30   2.266   1_565  S
In27         O38   2.257       .  S
In27         O32   2.231       .  S
In27         O34   2.251       .  S
In27         O35   2.252       .  S
In27         O36   2.252       .  S
In27         O39   2.240       .  S
C28          O34   1.259       .  A
C28          O36   1.259       .  A
C28         C682   1.476       .  S
O29          C37   1.258   1_565  A
O30          C37   1.262       .  A
C31          O38   1.263       .  A
C31          O32   1.261       .  A
C31         C609   1.489       .  S
C33          O35   1.262       .  A
C33          O39   1.260       .  A
C33         C586   1.476       .  S
C37         C641   1.479       .  S
In40         O42   2.240       .  S
In40         O43   2.263       .  S
In40         O51   2.260       .  S
In40         O45   2.242       .  S
In40         O47   2.244   1_554  S
In40         O48   2.268       .  S
In40         O49   2.236       .  S
In40         O52   2.240       .  S
C41          O47   1.264       .  A
C41          O49   1.261   1_556  A
C41         C673   1.487       .  S
O42          C50   1.260       .  A
O43          C50   1.263       .  A
C44          O51   1.261       .  A
C44          O45   1.259       .  A
C44         C842   1.480       .  S
C46          O48   1.263       .  A
C46          O52   1.259       .  A
C46         C522   1.483       .  S
C50         C545   1.480   1_455  S
In53         O55   2.235       .  S
In53         O56   2.259       .  S
In53         O64   2.259       .  S
In53         O58   2.236       .  S
In53         O60   2.246       .  S
In53         O61   2.257       .  S
In53         O62   2.242       .  S
In53         O65   2.244       .  S
C54          O60   1.262       .  A
C54          O62   1.260       .  A
C54         C458   1.486       .  S
O55          C63   1.259   1_565  A
O56          C63   1.262   1_565  A
C57          O64   1.261       .  A
C57          O58   1.260       .  A
C57         C618   1.491       .  S
C59          O61   1.262       .  A
C59          O65   1.260       .  A
C59         C417   1.483       .  S
C63         C490   1.481       .  S
In66         O68   2.237       .  S
In66         O69   2.261       .  S
In66         O77   2.260       .  S
In66         O71   2.232       .  S
In66         O73   2.240       .  S
In66         O74   2.267       .  S
In66         O75   2.244       .  S
In66         O78   2.231       .  S
C67          O73   1.260       .  A
C67          O75   1.262       .  A
C67         C449   1.485       .  S
O68          C76   1.259       .  A
O69          C76   1.261       .  A
C70          O77   1.262       .  A
C70          O71   1.259       .  A
C70         C778   1.480       .  S
C72          O74   1.263       .  A
C72          O78   1.258       .  A
C72         C362   1.477       .  S
C76         C385   1.490       .  S
In79         O81   2.249   1_655  S
In79         O82   2.253   1_655  S
In79         O90   2.266       .  S
In79         O84   2.235       .  S
In79         O86   2.248       .  S
In79         O87   2.269       .  S
In79         O88   2.252       .  S
In79         O91   2.231       .  S
C80          O86   1.261       .  A
C80          O88   1.260       .  A
C80         C321   1.477       .  S
O81          C89   1.261       .  A
O82          C89   1.261       .  A
C83          O90   1.263       .  A
C83          O84   1.259       .  A
C83         C289   1.491       .  S
C85          O87   1.261       .  A
C85          O91   1.257       .  A
C85         C481   1.481       .  S
C89         C714   1.482       .  S
In92         O94   2.251       .  S
In92         O95   2.247       .  S
In92        O103   2.261       .  S
In92         O97   2.245       .  S
In92         O99   2.265       .  S
In92        O100   2.266       .  S
In92        O101   2.243       .  S
In92        O104   2.237       .  S
C93          O99   1.261       .  A
C93         O101   1.257       .  A
C93         C330   1.476       .  S
O94         C102   1.261   1_545  A
O95         C102   1.262   1_545  A
C96         O103   1.261       .  A
C96          O97   1.261       .  A
C96         C266   1.490       .  S
C98         O100   1.261       .  A
C98         O104   1.259       .  A
C98         C874   1.490       .  S
C102        C353   1.479       .  S
In105       O107   2.243       .  S
In105       O108   2.255       .  S
In105       O116   2.262       .  S
In105       O110   2.247       .  S
In105       O112   2.254       .  S
In105       O113   2.259       .  S
In105       O114   2.244       .  S
In105       O117   2.249       .  S
C106        O112   1.262   1_554  A
C106        O114   1.260   1_554  A
C106        C225   1.478       .  S
O107        C115   1.261       .  A
O108        C115   1.262       .  A
C109        O116   1.260       .  A
C109        O110   1.260       .  A
C109        C202   1.486       .  S
C111        O113   1.260       .  A
C111        O117   1.260       .  A
C111        C650   1.484       .  S
C115        C801   1.490       .  S
In118       O120   2.243   1_545  S
In118       O121   2.259       .  S
In118       O129   2.266       .  S
In118       O123   2.240       .  S
In118       O125   2.256       .  S
In118       O126   2.263       .  S
In118       O127   2.245       .  S
In118       O130   2.242       .  S
C119        O125   1.260       .  A
C119        O127   1.259       .  A
C119        C234   1.476       .  S
O120        C128   1.261       .  A
O121        C128   1.262   1_545  A
C122        O129   1.262       .  A
C122        O123   1.260       .  A
C122        C257   1.484       .  S
C124        O126   1.260       .  A
C124        O130   1.258       .  A
C124        C737   1.477       .  S
C128        C513   1.482       .  S
In131       O133   2.239       .  S
In131       O134   2.259       .  S
In131       O142   2.256       .  S
In131       O136   2.247       .  S
In131       O138   2.248       .  S
In131       O139   2.276       .  S
In131       O140   2.242       .  S
In131       O143   2.242       .  S
C132        O138   1.261       .  A
C132        O140   1.260       .  A
C132        C161   1.471       .  S
O133        C141   1.261       .  A
O134        C141   1.263       .  A
C135        O142   1.261       .  A
C135        O136   1.260       .  A
C135        C193   1.486       .  S
C137        O139   1.262       .  A
C137        O143   1.257       .  A
C137        C554   1.487       .  S
C141        C426   1.486       .  S
In144       O146   2.233       .  S
In144       O147   2.251   1_655  S
In144       O155   2.257       .  S
In144       O149   2.233       .  S
In144       O151   2.240       .  S
In144       O152   2.250       .  S
In144       O153   2.243       .  S
In144       O156   2.241       .  S
C145        O151   1.260       .  A
C145        O153   1.259       .  A
C145        C170   1.472       .  S
O146        C154   1.258   1_655  A
O147        C154   1.263       .  A
C148        O155   1.263       .  A
C148        O149   1.258       .  A
C148        C298   1.490       .  S
C150        O152   1.261       .  A
C150        O156   1.259       .  A
C150        C394   1.473       .  S
C154        C577   1.488       .  S
C157        C158   1.400       .  A
C157        C162   1.402       .  A
C157        H167   1.085       .  S
C158        C163   1.477       .  S
C158        C159   1.411       .  A
C159        C160   1.403       .  A
C159        C164   1.507       .  S
C160        C161   1.402       .  A
C160        H165   1.084       .  S
C161        C162   1.416       .  A
C162        C166   1.508       .  S
C163        C168   1.409       .  A
C163        C172   1.400       .  A
C164        H180   1.110       .  S
C164        H181   1.109       .  S
C164        H182   1.111       .  S
C166        H177   1.111       .  S
C166        H178   1.110       .  S
C166        H179   1.106       .  S
C168        C169   1.402       .  A
C168        C173   1.506       .  S
C169        C170   1.403       .  A
C169        H174   1.084       .  S
C170        C171   1.418       .  A
C171        C172   1.403       .  A
C171        C175   1.510       .  S
C172        H176   1.085       .  S
C173        H183   1.111       .  S
C173        H184   1.110       .  S
C173        H185   1.109       .  S
C175        H186   1.110       .  S
C175        H187   1.105       .  S
C175        H188   1.111       .  S
C189        C190   1.401       .  A
C189        C194   1.405       .  A
C189        H199   1.085       .  S
C190        C195   1.485       .  S
C190        C191   1.409       .  A
C191        C192   1.405       .  A
C191        C196   1.506       .  S
C192        C193   1.408       .  A
C192        H197   1.084       .  S
C193        C194   1.421       .  A
C194        C198   1.509       .  S
C195        C200   1.409       .  A
C195        C204   1.401       .  A
C196        H212   1.110       .  S
C196        H213   1.111       .  S
C196        H214   1.111       .  S
C198        H209   1.111       .  S
C198        H210   1.110       .  S
C198        H211   1.103       .  S
C200        C201   1.403       .  A
C200        C205   1.507       .  S
C201        C202   1.406       .  A
C201        H206   1.084       .  S
C202        C203   1.422       .  A
C203        C204   1.407       .  A
C203        C207   1.508       .  S
C204        H208   1.084       .  S
C205        H215   1.111       .  S
C205        H216   1.110       .  S
C205        H217   1.110       .  S
C207        H218   1.111       .  S
C207        H219   1.104       .  S
C207        H220   1.110       .  S
C221        C222   1.400       .  A
C221        C226   1.403       .  A
C221        H231   1.085       .  S
C222        C227   1.481       .  S
C222        C223   1.411       .  A
C223        C224   1.406       .  A
C223        C228   1.506       .  S
C224        C225   1.405       .  A
C224        H229   1.084       .  S
C225        C226   1.418       .  A
C226        C230   1.509       .  S
C227        C232   1.411       .  A
C227        C236   1.400       .  A
C228        H244   1.110       .  S
C228        H245   1.109       .  S
C228        H246   1.111       .  S
C230        H241   1.111       .  S
C230        H242   1.110       .  S
C230        H243   1.106       .  S
C232        C233   1.405       .  A
C232        C237   1.506       .  S
C233        C234   1.404       .  A
C233        H238   1.084       .  S
C234        C235   1.417       .  A
C235        C236   1.403       .  A
C235        C239   1.509       .  S
C236        H240   1.085       .  S
C237        H247   1.111       .  S
C237        H248   1.110       .  S
C237        H249   1.109       .  S
C239        H250   1.110       .  S
C239        H251   1.107       .  S
C239        H252   1.111       .  S
C253        C254   1.404       .  A
C253        C258   1.409       .  A
C253        H263   1.084   1_545  S
C254        C259   1.489       .  S
C254        C255   1.411       .  A
C255        C256   1.403       .  A
C255        C260   1.508       .  S
C256        C257   1.405       .  A
C256        H261   1.084       .  S
C257        C258   1.419       .  A
C258        C262   1.508   1_545  S
C259        C264   1.409       .  A
C259        C268   1.402       .  A
C260        H276   1.109       .  S
C260        H277   1.110       .  S
C260        H278   1.111       .  S
C262        H273   1.110       .  S
C262        H274   1.110       .  S
C262        H275   1.105       .  S
C264        C265   1.404       .  A
C264        C269   1.507       .  S
C265        C266   1.408       .  A
C265        H270   1.084       .  S
C266        C267   1.423       .  A
C267        C268   1.407       .  A
C267        C271   1.509       .  S
C268        H272   1.085       .  S
C269        H279   1.111       .  S
C269        H280   1.110       .  S
C269        H281   1.111       .  S
C271        H282   1.110       .  S
C271        H283   1.103       .  S
C271        H284   1.111       .  S
C285        C286   1.398       .  A
C285        C290   1.403       .  A
C285        H295   1.085       .  S
C286        C291   1.482       .  S
C286        C287   1.409       .  A
C287        C288   1.407       .  A
C287        C292   1.506   1_655  S
C288        C289   1.409       .  A
C288        H293   1.084   1_655  S
C289        C290   1.422       .  A
C290        C294   1.508       .  S
C291        C296   1.409       .  A
C291        C300   1.399       .  A
C292        H308   1.110   1_455  S
C292        H309   1.110       .  S
C292        H310   1.111       .  S
C294        H305   1.110       .  S
C294        H306   1.111       .  S
C294        H307   1.110       .  S
C296        C297   1.404       .  A
C296        C301   1.506   1_655  S
C297        C298   1.408       .  A
C297        H302   1.084   1_655  S
C298        C299   1.423       .  A
C299        C300   1.405       .  A
C299        C303   1.508       .  S
C300        H304   1.084       .  S
C301        H311   1.111       .  S
C301        H312   1.110   1_455  S
C301        H313   1.110       .  S
C303        H314   1.110       .  S
C303        H315   1.110       .  S
C303        H316   1.111       .  S
C317        C318   1.401       .  A
C317        C322   1.404       .  A
C317        H327   1.085       .  S
C318        C323   1.483       .  S
C318        C319   1.411       .  A
C319        C320   1.405       .  A
C319        C324   1.506       .  S
C320        C321   1.404       .  A
C320        H325   1.084       .  S
C321        C322   1.417       .  A
C322        C326   1.508       .  S
C323        C328   1.410       .  A
C323        C332   1.403       .  A
C324        H340   1.110       .  S
C324        H341   1.110       .  S
C324        H342   1.111       .  S
C326        H337   1.111       .  S
C326        H338   1.110       .  S
C326        H339   1.106       .  S
C328        C329   1.402       .  A
C328        C333   1.506       .  S
C329        C330   1.403       .  A
C329        H334   1.085       .  S
C330        C331   1.417       .  A
C331        C332   1.406       .  A
C331        C335   1.507       .  S
C332        H336   1.085       .  S
C333        H343   1.111       .  S
C333        H344   1.110       .  S
C333        H345   1.110       .  S
C335        H346   1.110       .  S
C335        H347   1.107       .  S
C335        H348   1.111       .  S
C349        C350   1.399       .  A
C349        C354   1.402       .  A
C349        H359   1.085       .  S
C350        C355   1.482       .  S
C350        C351   1.411       .  A
C351        C352   1.407       .  A
C351        C356   1.506       .  S
C352        C353   1.405       .  A
C352        H357   1.084       .  S
C353        C354   1.419       .  A
C354        C358   1.509       .  S
C355        C360   1.411       .  A
C355        C364   1.399       .  A
C356        H372   1.110       .  S
C356        H373   1.110       .  S
C356        H374   1.111       .  S
C358        H369   1.110       .  S
C358        H370   1.111       .  S
C358        H371   1.104   1_565  S
C360        C361   1.408       .  A
C360        C365   1.505       .  S
C361        C362   1.405       .  A
C361        H366   1.084       .  S
C362        C363   1.417       .  A
C363        C364   1.400       .  A
C363        C367   1.510       .  S
C364        H368   1.085       .  S
C365        H375   1.111       .  S
C365        H376   1.110       .  S
C365        H377   1.110       .  S
C367        H378   1.111       .  S
C367        H379   1.106       .  S
C367        H380   1.110       .  S
C381        C382   1.400       .  A
C381        C386   1.408       .  A
C381        H391   1.084       .  S
C382        C387   1.480       .  S
C382        C383   1.409       .  A
C383        C384   1.401       .  A
C383        C388   1.508       .  S
C384        C385   1.408       .  A
C384        H389   1.084       .  S
C385        C386   1.420       .  A
C386        C390   1.506       .  S
C387        C392   1.410       .  A
C387        C396   1.400       .  A
C388        H404   1.110       .  S
C388        H405   1.110       .  S
C388        H406   1.111       .  S
C390        H401   1.111       .  S
C390        H402   1.110       .  S
C390        H403   1.110       .  S
C392        C393   1.405       .  A
C392        C397   1.506       .  S
C393        C394   1.404       .  A
C393        H398   1.084       .  S
C394        C395   1.417       .  A
C395        C396   1.402       .  A
C395        C399   1.509       .  S
C396        H400   1.085       .  S
C397        H407   1.111       .  S
C397        H408   1.110       .  S
C397        H409   1.110       .  S
C399        H410   1.110       .  S
C399        H411   1.106       .  S
C399        H412   1.111       .  S
C413        C414   1.400       .  A
C413        C418   1.405       .  A
C413        H423   1.085       .  S
C414        C419   1.485       .  S
C414        C415   1.409       .  A
C415        C416   1.405       .  A
C415        C420   1.506       .  S
C416        C417   1.406       .  A
C416        H421   1.084       .  S
C417        C418   1.421       .  A
C418        C422   1.509       .  S
C419        C424   1.410       .  A
C419        C428   1.402       .  A
C420        H436   1.110       .  S
C420        H437   1.110       .  S
C420        H438   1.111       .  S
C422        H433   1.111       .  S
C422        H434   1.110       .  S
C422        H435   1.104       .  S
C424        C425   1.401       .  A
C424        C429   1.507       .  S
C425        C426   1.406       .  A
C425        H430   1.084       .  S
C426        C427   1.420       .  A
C427        C428   1.408       .  A
C427        C431   1.507       .  S
C428        H432   1.084       .  S
C429        H439   1.111       .  S
C429        H440   1.110       .  S
C429        H441   1.110       .  S
C431        H442   1.110       .  S
C431        H443   1.105       .  S
C431        H444   1.111       .  S
C445        C446   1.400       .  A
C445        C450   1.405       .  A
C445        H455   1.085       .  S
C446        C451   1.480       .  S
C446        C447   1.409       .  A
C447        C448   1.402       .  A
C447        C452   1.507       .  S
C448        C449   1.406       .  A
C448        H453   1.085       .  S
C449        C450   1.420       .  A
C450        C454   1.507       .  S
C451        C456   1.408       .  A
C451        C460   1.400       .  A
C452        H468   1.110       .  S
C452        H469   1.110       .  S
C452        H470   1.111       .  S
C454        H465   1.111       .  S
C454        H466   1.110       .  S
C454        H467   1.110       .  S
C456        C457   1.402       .  A
C456        C461   1.507       .  S
C457        C458   1.407       .  A
C457        H462   1.084       .  S
C458        C459   1.420       .  A
C459        C460   1.405       .  A
C459        C463   1.508       .  S
C460        H464   1.085       .  S
C461        H471   1.111       .  S
C461        H472   1.110       .  S
C461        H473   1.110       .  S
C463        H474   1.111       .  S
C463        H475   1.111       .  S
C463        H476   1.110       .  S
C477        C478   1.401       .  A
C477        C482   1.406       .  A
C477        H487   1.085       .  S
C478        C483   1.480       .  S
C478        C479   1.408       .  A
C479        C480   1.401       .  A
C479        C484   1.508       .  S
C480        C481   1.406       .  A
C480        H485   1.084       .  S
C481        C482   1.420       .  A
C482        C486   1.508       .  S
C483        C488   1.410       .  A
C483        C492   1.401       .  A
C484        H500   1.110       .  S
C484        H501   1.109       .  S
C484        H502   1.111       .  S
C486        H497   1.111       .  S
C486        H498   1.111       .  S
C486        H499   1.103       .  S
C488        C489   1.401       .  A
C488        C493   1.509       .  S
C489        C490   1.406       .  A
C489        H494   1.084       .  S
C490        C491   1.419       .  A
C491        C492   1.406       .  A
C491        C495   1.507       .  S
C492        H496   1.084       .  S
C493        H503   1.111       .  S
C493        H504   1.110       .  S
C493        H505   1.109       .  S
C495        H506   1.110       .  S
C495        H507   1.105       .  S
C495        H508   1.111       .  S
C509        C510   1.401       .  A
C509        C514   1.405       .  A
C509        H519   1.084       .  S
C510        C515   1.485       .  S
C510        C511   1.411       .  A
C511        C512   1.406       .  A
C511        C516   1.506       .  S
C512        C513   1.406       .  A
C512        H517   1.084       .  S
C513        C514   1.417       .  A
C514        C518   1.508       .  S
C515        C520   1.410       .  A
C515        C524   1.402       .  A
C516        H532   1.110       .  S
C516        H533   1.110       .  S
C516        H534   1.111       .  S
C518        H529   1.110       .  S
C518        H530   1.111       .  S
C518        H531   1.107       .  S
C520        C521   1.403       .  A
C520        C525   1.507       .  S
C521        C522   1.405       .  A
C521        H526   1.084       .  S
C522        C523   1.418       .  A
C523        C524   1.408       .  A
C523        C527   1.507       .  S
C524        H528   1.084       .  S
C525        H535   1.111       .  S
C525        H536   1.110       .  S
C525        H537   1.110       .  S
C527        H538   1.111       .  S
C527        H539   1.106       .  S
C527        H540   1.110       .  S
C541        C542   1.400       .  A
C541        C546   1.403       .  A
C541        H551   1.085       .  S
C542        C547   1.487       .  S
C542        C543   1.412   1_556  A
C543        C544   1.408       .  A
C543        C548   1.505       .  S
C544        C545   1.404       .  A
C544        H549   1.084       .  S
C545        C546   1.419   1_554  A
C546        C550   1.510   1_655  S
C547        C552   1.412       .  A
C547        C556   1.400       .  A
C548        H564   1.110       .  S
C548        H565   1.110       .  S
C548        H566   1.111       .  S
C550        H561   1.111       .  S
C550        H562   1.110       .  S
C550        H563   1.105       .  S
C552        C553   1.408       .  A
C552        C557   1.506       .  S
C553        C554   1.406       .  A
C553        H558   1.084       .  S
C554        C555   1.420       .  A
C555        C556   1.404       .  A
C555        C559   1.508       .  S
C556        H560   1.085       .  S
C557        H567   1.111       .  S
C557        H568   1.110       .  S
C557        H569   1.110       .  S
C559        H570   1.110       .  S
C559        H571   1.107       .  S
C559        H572   1.111       .  S
C573        C574   1.399       .  A
C573        C578   1.404       .  A
C573        H583   1.084       .  S
C574        C579   1.479       .  S
C574        C575   1.408       .  A
C575        C576   1.403       .  A
C575        C580   1.507       .  S
C576        C577   1.408       .  A
C576        H581   1.083       .  S
C577        C578   1.422       .  A
C578        C582   1.508       .  S
C579        C584   1.411       .  A
C579        C588   1.401       .  A
C580        H596   1.110       .  S
C580        H597   1.109       .  S
C580        H598   1.111       .  S
C582        H593   1.110       .  S
C582        H594   1.111       .  S
C582        H595   1.110       .  S
C584        C585   1.403       .  A
C584        C589   1.508       .  S
C585        C586   1.403       .  A
C585        H590   1.084       .  S
C586        C587   1.417       .  A
C587        C588   1.404       .  A
C587        C591   1.508       .  S
C588        H592   1.084       .  S
C589        H599   1.111       .  S
C589        H600   1.110       .  S
C589        H601   1.109       .  S
C591        H602   1.110       .  S
C591        H603   1.108       .  S
C591        H604   1.111       .  S
C605        C606   1.402       .  A
C605        C610   1.407       .  A
C605        H615   1.084       .  S
C606        C611   1.484       .  S
C606        C607   1.409       .  A
C607        C608   1.401       .  A
C607        C612   1.507       .  S
C608        C609   1.407       .  A
C608        H613   1.084       .  S
C609        C610   1.419       .  A
C610        C614   1.507       .  S
C611        C616   1.409       .  A
C611        C620   1.401       .  A
C612        H628   1.110       .  S
C612        H629   1.110       .  S
C612        H630   1.111       .  S
C614        H625   1.111   1_565  S
C614        H626   1.110   1_565  S
C614        H627   1.110       .  S
C616        C617   1.401       .  A
C616        C621   1.507       .  S
C617        C618   1.408       .  A
C617        H622   1.084       .  S
C618        C619   1.421       .  A
C619        C620   1.408       .  A
C619        C623   1.507   1_565  S
C620        H624   1.084   1_565  S
C621        H631   1.111       .  S
C621        H632   1.110       .  S
C621        H633   1.110       .  S
C623        H634   1.111       .  S
C623        H635   1.110       .  S
C623        H636   1.110   1_545  S
C637        C638   1.404       .  A
C637        C642   1.409       .  A
C637        H647   1.084       .  S
C638        C643   1.483       .  S
C638        C639   1.409       .  A
C639        C640   1.397       .  A
C639        C644   1.508       .  S
C640        C641   1.404       .  A
C640        H645   1.085       .  S
C641        C642   1.418       .  A
C642        C646   1.507       .  S
C643        C648   1.409       .  A
C643        C652   1.401       .  A
C644        H660   1.110       .  S
C644        H661   1.110       .  S
C644        H662   1.111       .  S
C646        H657   1.111       .  S
C646        H658   1.110       .  S
C646        H659   1.106       .  S
C648        C649   1.404       .  A
C648        C653   1.507       .  S
C649        C650   1.406       .  A
C649        H654   1.084       .  S
C650        C651   1.421       .  A
C651        C652   1.406       .  A
C651        C655   1.509       .  S
C652        H656   1.085       .  S
C653        H663   1.110       .  S
C653        H664   1.110       .  S
C653        H665   1.111       .  S
C655        H666   1.110       .  S
C655        H667   1.104       .  S
C655        H668   1.111       .  S
C669        C670   1.399       .  A
C669        C674   1.405       .  A
C669        H679   1.084       .  S
C670        C675   1.481       .  S
C670        C671   1.408       .  A
C671        C672   1.403       .  A
C671        C676   1.506       .  S
C672        C673   1.407       .  A
C672        H677   1.084       .  S
C673        C674   1.421       .  A
C674        C678   1.508       .  S
C675        C680   1.410       .  A
C675        C684   1.400       .  A
C676        H692   1.110       .  S
C676        H693   1.110       .  S
C676        H694   1.111       .  S
C678        H689   1.111       .  S
C678        H690   1.110       .  S
C678        H691   1.110       .  S
C680        C681   1.404       .  A
C680        C685   1.506       .  S
C681        C682   1.404       .  A
C681        H686   1.084       .  S
C682        C683   1.418       .  A
C683        C684   1.403       .  A
C683        C687   1.509       .  S
C684        H688   1.085       .  S
C685        H695   1.111       .  S
C685        H696   1.110       .  S
C685        H697   1.110       .  S
C687        H698   1.111       .  S
C687        H699   1.106       .  S
C687        H700   1.110       .  S
C701        C702   1.402       .  A
C701        C706   1.407       .  A
C701        H711   1.084       .  S
C702        C707   1.483       .  S
C702        C703   1.410       .  A
C703        C704   1.402       .  A
C703        C708   1.507       .  S
C704        C705   1.405       .  A
C704        H709   1.085       .  S
C705        C706   1.418       .  A
C706        C710   1.508       .  S
C707        C712   1.409       .  A
C707        C716   1.401       .  A
C708        H724   1.110       .  S
C708        H725   1.110       .  S
C708        H726   1.111       .  S
C710        H721   1.110       .  S
C710        H722   1.111       .  S
C710        H723   1.106       .  S
C712        C713   1.404       .  A
C712        C717   1.506       .  S
C713        C714   1.406       .  A
C713        H718   1.084       .  S
C714        C715   1.418       .  A
C715        C716   1.405       .  A
C715        C719   1.507       .  S
C716        H720   1.084       .  S
C717        H727   1.111       .  S
C717        H728   1.110       .  S
C717        H729   1.110       .  S
C719        H730   1.111       .  S
C719        H731   1.107       .  S
C719        H732   1.110       .  S
C733        C734   1.401       .  A
C733        C738   1.404       .  A
C733        H743   1.085       .  S
C734        C739   1.481       .  S
C734        C735   1.409       .  A
C735        C736   1.403       .  A
C735        C740   1.507       .  S
C736        C737   1.405       .  A
C736        H741   1.084       .  S
C737        C738   1.418       .  A
C738        C742   1.508       .  S
C739        C744   1.410       .  A
C739        C748   1.401       .  A
C740        H756   1.110       .  S
C740        H757   1.108       .  S
C740        H758   1.111       .  S
C742        H753   1.111       .  S
C742        H754   1.111       .  S
C742        H755   1.105       .  S
C744        C745   1.400       .  A
C744        C749   1.509       .  S
C745        C746   1.406       .  A
C745        H750   1.084       .  S
C746        C747   1.420       .  A
C747        C748   1.408       .  A
C747        C751   1.507       .  S
C748        H752   1.084       .  S
C749        H759   1.111       .  S
C749        H760   1.110       .  S
C749        H761   1.108       .  S
C751        H762   1.110       .  S
C751        H763   1.110       .  S
C751        H764   1.111       .  S
C765        C766   1.400       .  A
C765        C770   1.404       .  A
C765        H775   1.085       .  S
C766        C771   1.482       .  S
C766        C767   1.409       .  A
C767        C768   1.404       .  A
C767        C772   1.506       .  S
C768        C769   1.408       .  A
C768        H773   1.084       .  S
C769        C770   1.420       .  A
C770        C774   1.508       .  S
C771        C776   1.410       .  A
C771        C780   1.402       .  A
C772        H788   1.110       .  S
C772        H789   1.110       .  S
C772        H790   1.111       .  S
C774        H785   1.111       .  S
C774        H786   1.110       .  S
C774        H787   1.110       .  S
C776        C777   1.400       .  A
C776        C781   1.507       .  S
C777        C778   1.405       .  A
C777        H782   1.085       .  S
C778        C779   1.419       .  A
C779        C780   1.407       .  A
C779        C783   1.508       .  S
C780        H784   1.085       .  S
C781        H791   1.111       .  S
C781        H792   1.110       .  S
C781        H793   1.110       .  S
C783        H794   1.111       .  S
C783        H795   1.105       .  S
C783        H796   1.110       .  S
C797        C798   1.400       .  A
C797        C802   1.408   1_554  A
C797        H807   1.084   1_554  S
C798        C803   1.483       .  S
C798        C799   1.410       .  A
C799        C800   1.403       .  A
C799        C804   1.507       .  S
C800        C801   1.407   1_554  A
C800        H805   1.084       .  S
C801        C802   1.420       .  A
C802        C806   1.507       .  S
C803        C808   1.409       .  A
C803        C812   1.401       .  A
C804        H820   1.110       .  S
C804        H821   1.110       .  S
C804        H822   1.111       .  S
C806        H817   1.111       .  S
C806        H818   1.109       .  S
C806        H819   1.111       .  S
C808        C809   1.405       .  A
C808        C813   1.506       .  S
C809        C810   1.406       .  A
C809        H814   1.084       .  S
C810        C811   1.419       .  A
C811        C812   1.404       .  A
C811        C815   1.509       .  S
C812        H816   1.085       .  S
C813        H823   1.111       .  S
C813        H824   1.110       .  S
C813        H825   1.110       .  S
C815        H826   1.110       .  S
C815        H827   1.104       .  S
C815        H828   1.111       .  S
C829        C830   1.400       .  A
C829        C834   1.402       .  A
C829        H839   1.085       .  S
C830        C835   1.483       .  S
C830        C831   1.411       .  A
C831        C832   1.406       .  A
C831        C836   1.506       .  S
C832        C833   1.405       .  A
C832        H837   1.084       .  S
C833        C834   1.417       .  A
C834        C838   1.508       .  S
C835        C840   1.411       .  A
C835        C844   1.400       .  A
C836        H852   1.110       .  S
C836        H853   1.110       .  S
C836        H854   1.111       .  S
C838        H849   1.111       .  S
C838        H850   1.110       .  S
C838        H851   1.106       .  S
C840        C841   1.406       .  A
C840        C845   1.506   1_455  S
C841        C842   1.405       .  A
C841        H846   1.084       .  S
C842        C843   1.419       .  A
C843        C844   1.403       .  A
C843        C847   1.509       .  S
C844        H848   1.085       .  S
C845        H855   1.111       .  S
C845        H856   1.110       .  S
C845        H857   1.111       .  S
C847        H858   1.111       .  S
C847        H859   1.105       .  S
C847        H860   1.110       .  S
C861        C862   1.403       .  A
C861        C866   1.409       .  A
C861        H871   1.084       .  S
C862        C867   1.484       .  S
C862        C863   1.410       .  A
C863        C864   1.401       .  A
C863        C868   1.508       .  S
C864        C865   1.406       .  A
C864        H869   1.084       .  S
C865        C866   1.418       .  A
C866        C870   1.507       .  S
C867        C872   1.409       .  A
C867        C876   1.402       .  A
C868        H884   1.110       .  S
C868        H885   1.109       .  S
C868        H886   1.111       .  S
C870        H881   1.111       .  S
C870        H882   1.110       .  S
C870        H883   1.106       .  S
C872        C873   1.402       .  A
C872        C877   1.507       .  S
C873        C874   1.407       .  A
C873        H878   1.084       .  S
C874        C875   1.420       .  A
C875        C876   1.409       .  A
C875        C879   1.507       .  S
C876        H880   1.084       .  S
C877        H887   1.111       .  S
C877        H888   1.110       .  S
C877        H889   1.109       .  S
C879        H890   1.111       .  S
C879        H891   1.110       .  S
C879        H892   1.110       .  S
C893        C894   1.399       .  A
C893        C898   1.402       .  A
C893        H903   1.085       .  S
C894        C899   1.478       .  S
C894        C895   1.410       .  A
C895        C896   1.403       .  A
C895        C900   1.507       .  S
C896        C897   1.405       .  A
C896        H901   1.084       .  S
C897        C898   1.417       .  A
C898        C902   1.508       .  S
C899        C904   1.410       .  A
C899        C908   1.400       .  A
C900        H916   1.110       .  S
C900        H917   1.109       .  S
C900        H918   1.111       .  S
C902        H913   1.111       .  S
C902        H914   1.110       .  S
C902        H915   1.105       .  S
C904        C905   1.403       .  A
C904        C909   1.507       .  S
C905        C906   1.404       .  A
C905        H910   1.085       .  S
C906        C907   1.415       .  A
C907        C908   1.402       .  A
C907        C911   1.508       .  S
C908        H912   1.085       .  S
C909        H919   1.111       .  S
C909        H920   1.110       .  S
C909        H921   1.109       .  S
C911        H922   1.110       .  S
C911        H923   1.106       .  S
C911        H924   1.111       .  S
