geometry optimzed in LAMMPS
_audit_creation_date              2020-12-01 
_audit_creation_method            'lammps2cif' 
_symmetry_space_group_name_H-M    'P1' 
_symmetry_Int_Tables_number       1 
_symmetry_cell_setting            triclinic 
loop_ 
_symmetry_equiv_pos_as_xyz 
  x,y,z 
_cell_length_a                    43.72920405 
_cell_length_b                    43.72762336651861 
_cell_length_c                    63.071935691383445 
_cell_angle_alpha                 89.97874058669154 
_cell_angle_beta                  89.97866608429432 
_cell_angle_gamma                 119.96866390784697 
loop_ 
_atom_site_label 
_atom_site_type_symbol 
_atom_site_fract_x 
_atom_site_fract_y 
_atom_site_fract_z 
_atom_site_charge 
O1          O  0.04079690  0.39663266  0.28066743    -0.72700
O2          O  0.01751837  0.37194669  0.22074538    -0.73700
O3          O  0.02683513  0.42928354  0.24665589    -0.62300
O4          O  0.02672452  0.33613107  0.25500671    -0.70700
O5          O  0.47073231  0.31202750  0.26505463    -0.70300
O6          O  0.46878065  0.39917912  0.25259386    -0.61500
O7          O  0.45978047  0.34160488  0.22740146    -0.74000
O8          O  0.48469331  0.37434004  0.28965210    -0.72800
Cu9        Cu  0.02991732  0.38423555  0.25056199     1.04600
Cu10       Cu  0.46898691  0.35557236  0.25904123     1.04300
C11         C  0.01768774  0.39282336  0.29428032     0.93500
C12         C  0.48565623  0.35295026  0.21421948     0.92600
C13         C  0.99713197  0.42842288  0.24843450     0.84800
C14         C  0.99759814  0.30903528  0.26079944     0.91000
O15         O  0.06484465  0.44201843  0.38742593    -0.72700
O16         O  0.08827113  0.45908146  0.44766691    -0.73700
O17         O  0.03234230  0.45589017  0.42284011    -0.62300
O18         O  0.12510826  0.45332828  0.41246301    -0.70700
O19         O  0.15130086  0.51062252  0.40582732    -0.70300
O20         O  0.06423883  0.51282378  0.41557165    -0.61500
O21         O  0.11753838  0.51696898  0.44302754    -0.74000
O22         O  0.09365892  0.49884574  0.37900951    -0.72800
Cu23       Cu  0.07665422  0.45047561  0.41767327     1.04600
Cu24       Cu  0.10770265  0.51178212  0.41059807     1.04300
C25         C  0.07425579  0.46623647  0.37366954     0.93500
C26         C  0.10600055  0.48980824  0.45531487     0.92600
C27         C  0.03493516  0.48647136  0.42088747     0.84800
C28         C  0.15320600  0.48285592  0.40807605     0.91000
O29         O  0.44802495  0.10312209  0.22264157    -0.72700
O30         O  0.43006818  0.07676861  0.28254829    -0.73700
O31         O  0.44146365  0.13766091  0.25877963    -0.62300
O32         O  0.44141756  0.04514774  0.24646316    -0.70700
O33         O  0.49886672  0.07432278  0.25289417    -0.70300
O34         O  0.49911019  0.16256128  0.26432272    -0.61500
O35         O  0.48710156  0.10346149  0.29028782    -0.74000
O36         O  0.50592562  0.13025136  0.22697445    -0.72800
Cu37       Cu  0.43823078  0.08980475  0.25251912     1.04600
Cu38       Cu  0.49974078  0.11866761  0.25894433     1.04300
C39         C  0.47889167  0.12004650  0.21485535     0.93500
C40         C  0.45460216  0.08445622  0.29589060     0.92600
C41         C  0.47155388  0.16514271  0.26254932     0.84800
C42         C  0.47119987  0.04600876  0.24758632     0.91000
O43         O  0.30099805  0.48246328  0.41231424    -0.72700
O44         O  0.39126211  0.48703828  0.42474229    -0.73700
O45         O  0.33410347  0.47899587  0.45022836    -0.62300
O46         O  0.37253948  0.99662430  0.38299750    -0.70700
O47         O  0.39531155  0.05321963  0.39088191    -0.70300
O48         O  0.36759537  0.03182265  0.45078384    -0.61500
O49         O  0.42690422  0.04108118  0.42626017    -0.74000
O50         O  0.33287560  0.03830506  0.41473900    -0.72800
Cu51       Cu  0.34638243  0.48445036  0.41821518     1.04600
Cu52       Cu  0.38143026  0.04311305  0.42086461     1.04300
C53         C  0.30613909  0.00865149  0.40915253     0.93500
C54         C  0.42642881  0.01146768  0.42520633     0.92600
C55         C  0.34913644  0.00059582  0.45787812     0.84800
C56         C  0.39079788  0.02937510  0.37768617     0.91000
O57         O  0.04974823  0.47865131  0.58539808    -0.72700
O58         O  0.13435266  0.47172691  0.59709207    -0.73700
O59         O  0.08307709  0.98420322  0.62072895    -0.62300
O60         O  0.09613991  0.46982158  0.55918132    -0.70700
O61         O  0.12428102  0.02617847  0.55408627    -0.70300
O62         O  0.11569228  0.04151064  0.61416377    -0.61500
O63         O  0.16388652  0.02774840  0.59003769    -0.74000
O64         O  0.07401188  0.03239069  0.57817202    -0.72800
Cu65       Cu  0.09144393  0.47502577  0.59145913     1.04600
Cu66       Cu  0.12082409  0.03397314  0.58405690     1.04300
C67         C  0.04467105  0.00292862  0.57846403     0.93500
C68         C  0.16038942  0.99710677  0.59351362     0.92600
C69         C  0.09684177  0.01657133  0.62681678     0.84800
C70         C  0.10919734  0.99580840  0.54575140     0.91000
O71         O  0.13647169  0.15849815  0.73730600    -0.72700
O72         O  0.04665462  0.07358651  0.75080354    -0.73700
O73         O  0.09571651  0.13169199  0.77480031    -0.62300
O74         O  0.08884805  0.09559438  0.71384583    -0.70700
O75         O  0.11853629  0.06975383  0.72455825    -0.70300
O76         O  0.12484767  0.10391106  0.78306627    -0.61500
O77         O  0.07284436  0.04368991  0.76054786    -0.74000
O78         O  0.16788916  0.13410188  0.74725348    -0.72800
Cu79       Cu  0.09113958  0.11588557  0.74372782     1.04600
Cu80       Cu  0.12218869  0.08692725  0.75403521     1.04300
C81         C  0.16632713  0.16143379  0.74117522     0.93500
C82         C  0.04454909  0.04551042  0.75798330     0.92600
C83         C  0.11130835  0.12245192  0.78853977     0.84800
C84         C  0.10169933  0.07529715  0.71007371     0.91000
O85         O  0.31782928  0.50747466  0.60468145    -0.72700
O86         O  0.40968642  0.51679823  0.59192981    -0.73700
O87         O  0.35928110  0.52451262  0.56726423    -0.62300
O88         O  0.36638655  0.49274969  0.62869919    -0.70700
O89         O  0.33693147  0.43832176  0.61629442    -0.70300
O90         O  0.33437893  0.46797975  0.55894044    -0.61500
O91         O  0.38526737  0.46091495  0.58220647    -0.74000
O92         O  0.28859209  0.45247299  0.59289575    -0.72800
Cu93       Cu  0.36417672  0.51237168  0.59868520     1.04600
Cu94       Cu  0.33538014  0.45301466  0.58741088     1.04300
C95         C  0.28896695  0.48066655  0.59914013     0.93500
C96         C  0.41290405  0.49132278  0.58513419     0.92600
C97         C  0.34497684  0.49952241  0.55343987     0.84800
C98         C  0.35284897  0.45919872  0.63151544     0.91000
O99         O  0.32199327  0.36972257  0.78201955    -0.72700
O100        O  0.33205017  0.39505481  0.72188804    -0.73700
O101        O  0.28174124  0.33385223  0.74572836    -0.62300
O102        O  0.37481893  0.42737778  0.75817674    -0.70700
O103        O  0.40258040  0.39731054  0.75343818    -0.70300
O104        O  0.31497081  0.30944299  0.74072030    -0.61500
O105        O  0.36384671  0.36930703  0.71554295    -0.74000
O106        O  0.35187104  0.34146520  0.77880716    -0.72800
Cu107      Cu  0.32646054  0.38235755  0.75202924     1.04600
Cu108      Cu  0.35921645  0.35331186  0.74684578     1.04300
C109        C  0.33507352  0.35244092  0.79039822     0.93500
C110        C  0.35035876  0.38804383  0.70933042     0.92600
C111        C  0.28458035  0.30638140  0.74207914     0.84800
C112        C  0.40366305  0.42614918  0.75784633     0.91000
O113        O  0.29742960  0.32669562  0.93340440    -0.72700
O114        O  0.38443869  0.41510566  0.91945722    -0.73700
O115        O  0.32579008  0.36600621  0.89507930    -0.62300
O116        O  0.36103318  0.37449035  0.95709349    -0.70700
O117        O  0.38513179  0.34252811  0.94762795    -0.70300
O118        O  0.35457053  0.33731142  0.88908778    -0.61500
O119        O  0.41413906  0.38775287  0.91209352    -0.74000
O120        O  0.32118368  0.29428868  0.92432742    -0.72800
Cu121      Cu  0.34110527  0.37147068  0.92669288     1.04600
Cu122      Cu  0.36952726  0.33928508  0.91812983     1.04300
C123        C  0.29398240  0.29649460  0.92992065     0.93500
C124        C  0.41292600  0.41648891  0.91372688     0.92600
C125        C  0.33616980  0.35017848  0.88220699     0.84800
C126        C  0.38055365  0.36090348  0.96145471     0.91000
O127        O  0.41776136  0.34345401  0.05721177    -0.72700
O128        O  0.44222374  0.33474727  0.11570008    -0.73700
O129        O  0.43595817  0.38777583  0.09351376    -0.62300
O130        O  0.43092459  0.29219456  0.07955836    -0.70700
O131        O  0.48731478  0.32364809  0.07096142    -0.70300
O132        O  0.49241756  0.41231866  0.08516185    -0.61500
O133        O  0.49957044  0.36239731  0.10935378    -0.74000
O134        O  0.47393960  0.37263460  0.04756897    -0.72800
Cu135      Cu  0.42961698  0.33832530  0.08664317     1.04600
Cu136      Cu  0.49014205  0.36850224  0.07783960     1.04300
C137        C  0.44109510  0.36085447  0.04332876     0.93500
C138        C  0.47355426  0.34734346  0.12242459     0.92600
C139        C  0.46668187  0.41544770  0.09155750     0.84800
C140        C  0.46010598  0.29376025  0.07403715     0.91000
O141        O  0.08396749  0.14099927  0.88638997    -0.72700
O142        O  0.05787712  0.13637800  0.94580389    -0.73700
O143        O  0.12045890  0.18438281  0.92223406    -0.62300
O144        O  0.02622773  0.09059805  0.91078353    -0.70700
O145        O  0.05612900  0.06294480  0.91694602    -0.70300
O146        O  0.14356823  0.15072671  0.92981262    -0.61500
O147        O  0.08132042  0.10340340  0.95418754    -0.74000
O148        O  0.11239624  0.11158423  0.89185851    -0.72800
Cu149      Cu  0.07140506  0.13942056  0.91614523     1.04600
Cu150      Cu  0.09953564  0.10640486  0.92358712     1.04300
C151        C  0.10046130  0.12627263  0.87921534     0.93500
C152        C  0.06249764  0.11747644  0.95916920     0.92600
C153        C  0.14734377  0.18124094  0.92732650     0.84800
C154        C  0.02755476  0.06181328  0.91189527     0.91000
O155        O  0.45959406  0.14440091  0.07316215    -0.72700
O156        O  0.46160082  0.05759281  0.08611550    -0.73700
O157        O  0.45418125  0.10702586  0.11127442    -0.62300
O158        O  0.47211113  0.09621316  0.04843365    -0.70700
O159        O  0.02977354  0.12763092  0.05497586    -0.70300
O160        O  0.01239200  0.13807769  0.11467657    -0.61500
O161        O  0.01953940  0.08627933  0.09135174    -0.74000
O162        O  0.01722547  0.17796267  0.07819725    -0.72800
Cu163      Cu  0.45991467  0.10040282  0.07945409     1.04600
Cu164      Cu  0.02176408  0.13376388  0.08491093     1.04300
C165        C  0.98684917  0.17491435  0.07444535     0.93500
C166        C  0.98990054  0.05713142  0.09064546     0.92600
C167        C  0.48171837  0.12404617  0.12295201     0.84800
C168        C  0.00454826  0.10916868  0.04239839     0.91000
C169        C  0.00212809  0.11569061  0.00366436    -0.12000
C170        C  0.01406121  0.10429540  0.02071626     0.05000
C171        C  0.03977245  0.09423857  0.01710879    -0.07300
C172        C  0.05457635  0.09771889  0.99692896    -0.08100
C173        C  0.04462204  0.11166224  0.98008924    -0.02600
C174        C  0.01713041  0.11968545  0.98352738     0.04200
N175        N  0.00458929  0.13300521  0.96702199     0.66700
H176        H  0.48229738  0.12338765  0.00619236     0.15600
H177        H  0.07457543  0.09042242  0.99465288     0.15300
N178        N  0.05100948  0.08003363  0.03373385     0.74400
O179        O  0.47573577  0.11181053  0.95768966    -0.39000
O180        O  0.01610051  0.16578825  0.96594929    -0.39000
O181        O  0.03846707  0.04705206  0.03444791    -0.39700
O182        O  0.07979951  0.09997522  0.04301417    -0.39800
C183        C  0.50018074  0.26857148  0.07021134    -0.12000
C184        C  0.46522514  0.26229781  0.07233721     0.05000
C185        C  0.43785000  0.22701073  0.07418245    -0.07300
C186        C  0.44571115  0.19948307  0.07405199    -0.08100
C187        C  0.48075779  0.20588091  0.07257317    -0.02600
C188        C  0.00820095  0.24108625  0.07066577     0.04200
N189        N  0.04432281  0.24999095  0.06919041     0.66700
H190        H  0.02206275  0.29511341  0.06899666     0.15600
H191        H  0.42398731  0.17285737  0.07579951     0.15300
N192        N  0.40194736  0.21834720  0.07663550     0.74400
O193        O  0.05864921  0.25554162  0.05115955    -0.39000
O194        O  0.06362258  0.26135767  0.08544715    -0.39000
O195        O  0.38149303  0.20671018  0.06088720    -0.39700
O196        O  0.38896889  0.21342932  0.09503355    -0.39800
C197        C  0.50925445  0.47978304  0.09073885    -0.12000
C198        C  0.47481177  0.45231635  0.09575341     0.05000
C199        C  0.45047621  0.46159408  0.10368970    -0.07300
C200        C  0.45162246  0.99263387  0.09696630    -0.08100
C201        C  0.48601142  0.02177210  0.09420844    -0.02600
C202        C  0.01458745  0.01520155  0.09268471     0.04200
N203        N  0.05032033  0.04322626  0.09099256     0.66700
H204        H  0.02879195  0.47365368  0.08518513     0.15600
H205        H  0.42937771  0.99674014  0.09876987     0.15300
N206        N  0.41617985  0.43548198  0.11071103     0.74400
O207        O  0.06780090  0.05609809  0.10776225    -0.39000
O208        O  0.06676606  0.04706295  0.07387599    -0.39000
O209        O  0.41090495  0.42898262  0.13028591    -0.39700
O210        O  0.39008987  0.42628202  0.09857403    -0.39800
C211        C  0.21108222  0.20729738  0.91906892    -0.12000
C212        C  0.18436302  0.21158512  0.92872322     0.05000
C213        C  0.19456834  0.24269338  0.94037326    -0.07300
C214        C  0.23053135  0.26899655  0.94144639    -0.08100
C215        C  0.25725877  0.26515468  0.93119869    -0.02600
C216        C  0.24692545  0.23340531  0.92015908     0.04200
N217        N  0.27207404  0.22759183  0.90910869     0.66700
H218        H  0.20402759  0.18347584  0.91027811     0.15600
H219        H  0.23746160  0.29277436  0.95022980     0.15300
N220        N  0.16927016  0.24746091  0.95204497     0.74400
O221        O  0.28454048  0.21041489  0.91810017    -0.39000
O222        O  0.27477527  0.23153452  0.88924741    -0.39000
O223        O  0.16558541  0.24056796  0.97162412    -0.39700
O224        O  0.15809448  0.26672406  0.94440877    -0.39800
C225        C  0.43799156  0.48156738  0.90991288    -0.12000
C226        C  0.44381729  0.45247622  0.90994012     0.05000
C227        C  0.47876301  0.45940435  0.90810828    -0.07300
C228        C  0.00370501  0.99936978  0.90059953    -0.08100
C229        C  0.99691619  0.02590136  0.90808821    -0.02600
C230        C  0.46231997  0.01551998  0.91498526     0.04200
N231        N  0.45381158  0.04075375  0.92322125     0.66700
H232        H  0.41145541  0.47729412  0.91028915     0.15600
H233        H  0.02968830  0.00656010  0.89479764     0.15300
N234        N  0.98623442  0.43136939  0.90567125     0.74400
O235        O  0.43938266  0.05293778  0.91120853    -0.39000
O236        O  0.45175560  0.04317036  0.94303923    -0.39000
O237        O  0.99055965  0.42274184  0.88730412    -0.39700
O238        O  0.99875623  0.42327058  0.92128518    -0.39800
C239        C  0.38367794  0.36988425  0.00088477    -0.12000
C240        C  0.39879561  0.36597494  0.98227742     0.05000
C241        C  0.43092894  0.36529210  0.98393372    -0.07300
C242        C  0.44545964  0.36565210  0.00384058    -0.08100
C243        C  0.42874208  0.36662126  0.02246392    -0.02600
C244        C  0.39829955  0.37027826  0.02081392     0.04200
N245        N  0.38203441  0.37491451  0.03923939     0.66700
H246        H  0.35988669  0.37154678  0.00006044     0.15600
H247        H  0.46916220  0.36382089  0.00468725     0.15300
N248        N  0.44999701  0.36525940  0.96556456     0.74400
O249        O  0.39073024  0.40578460  0.04513094    -0.39000
O250        O  0.35375999  0.34922319  0.04614127    -0.39000
O251        O  0.47779781  0.39336450  0.96069253    -0.39700
O252        O  0.44557911  0.33626342  0.95862410    -0.39800
C253        C  0.31668914  0.36501324  0.82528636    -0.12000
C254        C  0.33108432  0.34730311  0.81381422     0.05000
C255        C  0.34218947  0.32696920  0.82521430    -0.07300
C256        C  0.34094232  0.32661601  0.84734770    -0.08100
C257        C  0.32946065  0.34677508  0.85890660    -0.02600
C258        C  0.31578187  0.36492767  0.84752212     0.04200
N259        N  0.30151158  0.38397466  0.85800856     0.66700
H260        H  0.30700364  0.38013753  0.81707091     0.15600
H261        H  0.35041396  0.31121088  0.85545952     0.12900
N262        N  0.35548349  0.30695897  0.81483963     0.74400
O263        O  0.32049569  0.41696973  0.86011058    -0.39000
O264        O  0.26842601  0.37001386  0.85953775    -0.39000
O265        O  0.38836363  0.31876233  0.81458759    -0.39700
O266        O  0.33488114  0.27446382  0.81166534    -0.39800
C267        C  0.33301191  0.40501052  0.65339826    -0.12000
C268        C  0.35487768  0.44210136  0.65171336     0.05000
C269        C  0.37864882  0.45992759  0.66844917    -0.07300
C270        C  0.37906807  0.44094733  0.68642273    -0.08100
C271        C  0.35650206  0.40419316  0.68807095    -0.02600
C272        C  0.33357352  0.38623697  0.67122972     0.04200
N273        N  0.30886907  0.34927059  0.67253273     0.66700
H274        H  0.31446709  0.39019192  0.64100033     0.15600
H275        H  0.39604444  0.45521905  0.69957228     0.15300
N276        N  0.40222936  0.49713189  0.66774527     0.74400
O277        O  0.27793118  0.33917533  0.67893692    -0.39000
O278        O  0.31496860  0.32793298  0.66248774    -0.39000
O279        O  0.39453364  0.51718732  0.67795162    -0.39700
O280        O  0.43376925  0.50859533  0.66203217    -0.39800
C281        C  0.07977116  0.12337930  0.82066398    -0.12000
C282        C  0.11143062  0.12978760  0.81138256     0.05000
C283        C  0.13997191  0.13542586  0.82463549    -0.07300
C284        C  0.13603939  0.13354687  0.84675027    -0.08100
C285        C  0.10396421  0.12603638  0.85595160    -0.02600
C286        C  0.07563090  0.12096520  0.84268159     0.04200
N287        N  0.04147250  0.11046913  0.85120771     0.66700
H288        H  0.05733951  0.11768719  0.81080815     0.15600
H289        H  0.15809397  0.13829312  0.85668207     0.15300
N290        N  0.17333438  0.14353311  0.81590523     0.74400
O291        O  0.03124674  0.13276702  0.85240142    -0.39000
O292        O  0.01904464  0.07801367  0.85258798    -0.39000
O293        O  0.19772822  0.17533590  0.81516550    -0.39700
O294        O  0.18099559  0.11937515  0.81428425    -0.39800
C295        C  0.48034353  0.02374406  0.76450870    -0.12000
C296        C  0.00829807  0.01591379  0.76269519     0.05000
C297        C  0.00345882  0.47863766  0.76502051    -0.07300
C298        C  0.46815365  0.45114796  0.76455729    -0.08100
C299        C  0.43947438  0.45725647  0.76194482    -0.02600
C300        C  0.44472499  0.99694503  0.76507369     0.04200
N301        N  0.41801717  0.00659622  0.76629142     0.66700
H302        H  0.98645281  0.05071763  0.76517451     0.15600
H303        H  0.46351524  0.42451085  0.76550874     0.15300
N304        N  0.03094462  0.47015980  0.76655107     0.74400
O305        O  0.40964507  0.01300149  0.78421305    -0.39000
O306        O  0.41006395  0.01752881  0.74984026    -0.39000
O307        O  0.03861853  0.46315291  0.78450465    -0.39700
O308        O  0.03999039  0.46019525  0.75014401    -0.39800
C309        C  0.19325578  0.22566608  0.73202549    -0.12000
C310        C  0.19797542  0.19781022  0.73967401     0.05000
C311        C  0.23145790  0.20655894  0.74768755    -0.07300
C312        C  0.25873468  0.24191192  0.74800992    -0.08100
C313        C  0.25376753  0.26971120  0.74081659    -0.02600
C314        C  0.22046284  0.26116239  0.73271984     0.04200
N315        N  0.21380899  0.28782789  0.72468691     0.66700
H316        H  0.16801912  0.22012543  0.72578007     0.15600
H317        H  0.28388725  0.24766792  0.75453806     0.15300
N318        N  0.23813453  0.18033404  0.75643269     0.74400
O319        O  0.21600154  0.29357176  0.70498983    -0.39000
O320        O  0.19713121  0.29835202  0.73604450    -0.39000
O321        O  0.25492594  0.16936037  0.74556171    -0.39700
O322        O  0.23567290  0.17535263  0.77621109    -0.39800
C323        C  0.00680122  0.02975326  0.58087288    -0.12000
C324        C  0.01030920  0.00090783  0.57509564     0.05000
C325        C  0.48719403  0.47503540  0.56987447    -0.07300
C326        C  0.45352800  0.47088263  0.57223018    -0.08100
C327        C  0.44914074  0.49780572  0.58105580    -0.02600
C328        C  0.47366507  0.02634046  0.58318646     0.04200
N329        N  0.47230328  0.05649117  0.59064307     0.66700
H330        H  0.02983073  0.05444555  0.58513590     0.15600
H331        H  0.43083966  0.44628654  0.56747778     0.15300
N332        N  0.98983489  0.44609628  0.56085631     0.74400
O333        O  0.47266164  0.06162681  0.61035260    -0.39000
O334        O  0.47997355  0.08178962  0.57808436    -0.39000
O335        O  0.98070171  0.41839112  0.57148690    -0.39700
O336        O  0.49336829  0.44635083  0.54062859    -0.39800
C337        C  0.22305100  0.01929460  0.60373272    -0.12000
C338        C  0.19137473  0.99186171  0.59578681     0.05000
C339        C  0.19330542  0.45951420  0.60260014    -0.07300
C340        C  0.22345959  0.45571412  0.60288311    -0.08100
C341        C  0.25696933  0.48446971  0.59872453    -0.02600
C342        C  0.25294057  0.01558224  0.60581847     0.04200
N343        N  0.28438423  0.04502580  0.61391924     0.66700
H344        H  0.22474135  0.04388068  0.60833358     0.15600
H345        H  0.22063705  0.43029966  0.60653134     0.15300
N346        N  0.15999738  0.42899320  0.60713671     0.74400
O347        O  0.30402289  0.06981213  0.60152017    -0.39000
O348        O  0.28763721  0.05026904  0.63366752    -0.39000
O349        O  0.14523213  0.40567612  0.59301872    -0.39700
O350        O  0.15085863  0.42094437  0.62622814    -0.39800
C351        C  0.08701141  0.06964633  0.67134070    -0.12000
C352        C  0.09709493  0.05747692  0.68907499     0.05000
C353        C  0.10262851  0.02823038  0.68633833    -0.07300
C354        C  0.09970753  0.01328160  0.66618417    -0.08100
C355        C  0.09177611  0.02697628  0.64838191    -0.02600
C356        C  0.08454087  0.05493865  0.65119070     0.04200
N357        N  0.07454999  0.06882611  0.63368423     0.66700
H358        H  0.08187225  0.09125650  0.67294493     0.15600
H359        H  0.10550802  0.99214627  0.66432184     0.15300
N360        N  0.11169533  0.01336485  0.70372751     0.74400
O361        O  0.04217688  0.05679418  0.62996992    -0.39000
O362        O  0.09681430  0.09829833  0.62594832    -0.39000
O363        O  0.08841980  0.98434258  0.71142808    -0.39700
O364        O  0.14380615  0.02372857  0.70729564    -0.39800
C365        C  0.34968596  0.02734888  0.49306080    -0.12000
C366        C  0.33993771  0.50485922  0.48552172     0.05000
C367        C  0.31750155  0.47361679  0.49659835    -0.07300
C368        C  0.31748880  0.47382821  0.51876116    -0.08100
C369        C  0.34016401  0.50442488  0.53056245    -0.02600
C370        C  0.34782994  0.02673481  0.51531829     0.04200
N371        N  0.35680665  0.05864734  0.52634029     0.66700
H372        H  0.35882889  0.05235835  0.48518902     0.15600
H373        H  0.30068289  0.44910829  0.52672421     0.15300
N374        N  0.29514604  0.44114294  0.48589233     0.74400
O375        O  0.38882191  0.08043907  0.53008923    -0.39000
O376        O  0.37010940  0.58987581  0.53336821    -0.39000
O377        O  0.30615017  0.41974803  0.48292963    -0.39700
O378        O  0.26233469  0.42964037  0.48557210    -0.39800
C379        C  0.41372554  0.03501161  0.31886368    -0.12000
C380        C  0.44326881  0.06927060  0.31742421     0.05000
C381        C  0.45693258  0.08892258  0.33612597    -0.07300
C382        C  0.43959164  0.07502301  0.35549093    -0.08100
C383        C  0.40891359  0.04132386  0.35678124    -0.02600
C384        C  0.39662515  0.02097543  0.33820757     0.04200
N385        N  0.37023092  0.48455590  0.34283397     0.66700
H386        H  0.40286064  0.01948625  0.30466409     0.15600
H387        H  0.44999337  0.09100975  0.36956092     0.15300
N388        N  0.48689951  0.12372628  0.33566430     0.74400
O389        O  0.33949299  0.47471058  0.33615834    -0.39000
O390        O  0.38051846  0.46231083  0.34410631    -0.39000
O391        O  0.48223386  0.14996782  0.33554173    -0.39700
O392        O  0.51682717  0.12814971  0.34054305    -0.39800
C393        C  0.01213799  0.13761381  0.15781255    -0.12000
C394        C  0.48033815  0.12661043  0.14643537     0.05000
C395        C  0.44929612  0.11708936  0.15797668    -0.07300
C396        C  0.45023639  0.11724063  0.18019543    -0.08100
C397        C  0.48149527  0.12599723  0.19150448    -0.02600
C398        C  0.51280558  0.13705325  0.17993293     0.04200
N399        N  0.04552576  0.14611979  0.19014520     0.66700
H400        H  0.03653098  0.14520899  0.14954935     0.15600
H401        H  0.42586025  0.10931056  0.18856440     0.15300
N402        N  0.41646783  0.10667785  0.14763962     0.74400
O403        O  0.05409361  0.12266154  0.19215124    -0.39000
O404        O  0.56908787  0.17787992  0.19135494    -0.39000
O405        O  0.39385495  0.07426603  0.14642096    -0.39700
O406        O  0.40662709  0.12911998  0.14527074    -0.39800
C407        C  0.11390444  0.52222871  0.48910166    -0.12000
C408        C  0.11094725  0.49266115  0.47872111     0.05000
C409        C  0.10812826  0.46419087  0.49119773    -0.07300
C410        C  0.10840658  0.46596350  0.51340611    -0.08100
C411        C  0.11112212  0.49543912  0.52372183    -0.02600
C412        C  0.11338908  0.52364862  0.51127792     0.04200
N413        N  0.08922154  0.03715635  0.51909994     0.66700
H414        H  0.11471571  0.54356317  0.48001764     0.15600
H415        H  0.10662101  0.44425891  0.52256423     0.15300
N416        N  0.10492353  0.43305215  0.48170736     0.74400
O417        O  0.14067559  0.58219578  0.52215913    -0.39000
O418        O  0.05622186  0.02454064  0.51856936    -0.39000
O419        O  0.13191455  0.42973695  0.48038902    -0.39700
O420        O  0.07474750  0.40592186  0.48027462    -0.39800
C421        C  0.19697239  0.46642076  0.42083228    -0.12000
C422        C  0.18918334  0.48696422  0.40730210     0.05000
C423        C  0.22658957  0.01860716  0.42083221    -0.07300
C424        C  0.26149613  0.02559019  0.41930477    -0.08100
C425        C  0.26987756  0.00368470  0.40744664    -0.02600
C426        C  0.23192913  0.47420428  0.42392592     0.04200
N427        N  0.23855876  0.45506346  0.43984147     0.66700
H428        H  0.17618716  0.44560543  0.43006950     0.15600
H429        H  0.28184188  0.04749426  0.42810462     0.15300
N430        N  0.21952902  0.04095391  0.43403874     0.74400
O431        O  0.24106638  0.46497876  0.45885469    -0.39000
O432        O  0.23192014  0.42403418  0.43596369    -0.39000
O433        O  0.21707131  0.03596152  0.45382135    -0.39700
O434        O  0.22483974  0.07014441  0.42685189    -0.39800
C435        C  0.01507510  0.02014127  0.41390255    -0.12000
C436        C  0.00527063  0.49374932  0.42433349     0.05000
C437        C  0.47483563  0.47225203  0.43618532    -0.07300
C438        C  0.44874093  0.48178091  0.43877190    -0.08100
C439        C  0.45839889  0.00829568  0.42755927    -0.02600
C440        C  0.48924186  0.02994303  0.41601001     0.04200
N441        N  0.49292602  0.05922700  0.40390572     0.66700
H442        H  0.03761602  0.03661854  0.40405502     0.15600
H443        H  0.42497266  0.46402471  0.44731644     0.15300
N444        N  0.46966338  0.44049511  0.44585804     0.74400
O445        O  0.01247201  0.08928688  0.40937082    -0.39000
O446        O  0.48456677  0.05470342  0.38454827    -0.39000
O447        O  0.47604777  0.44063121  0.46537765    -0.39700
O448        O  0.45030281  0.41141618  0.43671059    -0.39800
C449        C  0.46502056  0.24712794  0.27490517    -0.12000
C450        C  0.49313510  0.27287101  0.26258931     0.05000
C451        C  0.01314576  0.26230183  0.25008239    -0.07300
C452        C  0.50521703  0.22699203  0.25079462    -0.08100
C453        C  0.47689391  0.20133544  0.26281066    -0.02600
C454        C  0.45668526  0.21164462  0.27501345     0.04200
N455        N  0.42849235  0.18694454  0.28812898     0.66700
H456        H  0.44913546  0.25445293  0.28439309     0.15600
H457        H  0.02064030  0.21941430  0.24094036     0.15300
N458        N  0.04023547  0.28605128  0.23599479     0.74400
O459        O  0.43451330  0.18430144  0.30741149    -0.39000
O460        O  0.39706300  0.17521363  0.28212045    -0.39000
O461        O  0.07208614  0.29728408  0.24085212    -0.39700
O462        O  0.03245490  0.28746263  0.21688903    -0.39800
C463        C  0.51172763  0.52035667  0.25615324    -0.12000
C464        C  0.47539795  0.01490240  0.24325906     0.05000
C465        C  0.94816945  0.98017348  0.24620458    -0.07300
C466        C  0.95576429  0.95268287  0.24579373    -0.08100
C467        C  0.49304268  0.45984602  0.24674393    -0.02600
C468        C  0.51937104  0.49307534  0.25391776     0.04200
N469        N  0.55329484  0.49916875  0.26036686     0.66700
H470        H  0.53245415  0.54521017  0.26221276     0.15600
H471        H  0.93423547  0.92638084  0.24887647     0.15300
N472        N  0.91310460  0.97210051  0.25136455     0.74400
O473        O  0.57906148  0.51469597  0.24781371    -0.39000
O474        O  0.55914752  0.49743616  0.27979813    -0.39000
O475        O  0.88919736  0.95775070  0.23754417    -0.39700
O476        O  0.90449359  0.97037906  0.27061160    -0.39800
C477        C  0.02379474  0.43298346  0.34948952    -0.12000
C478        C  0.06059810  0.45430943  0.35194307     0.05000
C479        C  0.08262090  0.45565945  0.33532794    -0.07300
C480        C  0.06785041  0.43508028  0.31709877    -0.08100
C481        C  0.03095222  0.41271665  0.31473738    -0.02600
C482        C  0.00886395  0.41263734  0.33111112     0.04200
N483        N  0.47179371  0.39631539  0.32860613     0.66700
H484        H  0.00660671  0.43108737  0.36226406     0.15600
H485        H  0.08569529  0.43655619  0.30486414     0.15300
N486        N  0.12016331  0.47606249  0.33710985     0.74400
O487        O  0.45404278  0.36740753  0.33828674    -0.39000
O488        O  0.45658071  0.41268434  0.32223180    -0.39000
O489        O  0.13715759  0.46084242  0.34219708    -0.39700
O490        O  0.13626281  0.50591066  0.32825808    -0.39800
C491        C  0.44677419  0.33126174  0.15842969    -0.12000
C492        C  0.47760011  0.34503413  0.14578104     0.05000
C493        C  0.01038104  0.35731613  0.15592239    -0.07300
C494        C  0.01179165  0.35781858  0.17814912    -0.08100
C495        C  0.48103106  0.34660087  0.19089419    -0.02600
C496        C  0.44816893  0.33206227  0.18060087     0.04200
N497        N  0.41591931  0.31914050  0.19214479     0.66700
H498        H  0.42110458  0.32080121  0.15119911     0.15600
H499        H  0.03726581  0.36744770  0.18549863     0.15300
N500        N  0.04237188  0.36927384  0.14426598     0.74400
O501        O  0.40360817  0.33942215  0.19527817    -0.39000
O502        O  0.39564556  0.28622968  0.19374564    -0.39000
O503        O  0.06392249  0.40197621  0.14305736    -0.39700
O504        O  0.05303607  0.34782851  0.14043869    -0.39800
O505        O  0.04207063  0.90138143  0.28105747    -0.72700
O506        O  0.02097522  0.87303766  0.22150111    -0.73700
O507        O  0.02719972  0.93103289  0.24509187    -0.62300
O508        O  0.03052426  0.83967212  0.25701528    -0.70700
O509        O  0.47362318  0.81408900  0.26520307    -0.70300
O510        O  0.47010727  0.89980250  0.25262096    -0.61500
O511        O  0.46328779  0.84348797  0.22763996    -0.74000
O512        O  0.48535701  0.87438116  0.29002929    -0.72800
Cu513      Cu  0.03226860  0.88716328  0.25105057     1.04600
Cu514      Cu  0.47119617  0.85684224  0.25922192     1.04300
C515        C  0.01819153  0.89469601  0.29476523     0.93500
C516        C  0.48947411  0.85454029  0.21473687     0.92600
C517        C  0.99684559  0.92886206  0.24677493     0.84800
C518        C  0.00132482  0.81200809  0.26223114     0.91000
O519        O  0.07281297  0.93856156  0.38975037    -0.72700
O520        O  0.10014385  0.96208988  0.44910224    -0.73700
O521        O  0.04124233  0.95382652  0.42475586    -0.62300
O522        O  0.13505356  0.95364000  0.41439785    -0.70700
O523        O  0.15960742  0.01048930  0.40645005    -0.70300
O524        O  0.07115600  0.00998718  0.41533910    -0.61500
O525        O  0.12654813  0.01950967  0.44227372    -0.74000
O526        O  0.09934159  0.99439043  0.37946907    -0.72800
Cu527      Cu  0.08643409  0.94991551  0.41962841     1.04600
Cu528      Cu  0.11519624  0.01047813  0.41049001     1.04300
C529        C  0.07953201  0.96133321  0.37530855     0.93500
C530        C  0.11707266  0.99379004  0.45539308     0.92600
C531        C  0.04252560  0.98354932  0.42146525     0.84800
C532        C  0.16258772  0.98361551  0.41018891     0.91000
O533        O  0.45081666  0.60175886  0.22667210    -0.72700
O534        O  0.42915125  0.57901434  0.28678402    -0.73700
O535        O  0.44334888  0.63955619  0.26099154    -0.62300
O536        O  0.44275207  0.54526131  0.25232821    -0.70700
O537        O  0.49946875  0.57504791  0.26042354    -0.70300
O538        O  0.50068915  0.66436965  0.26745586    -0.61500
O539        O  0.48567875  0.60653101  0.29581959    -0.74000
O540        O  0.50857004  0.62882752  0.23185932    -0.72800
Cu541      Cu  0.43948745  0.59061137  0.25658160     1.04600
Cu542      Cu  0.50054687  0.61976005  0.26426685     1.04300
C543        C  0.48193356  0.61722491  0.21923644     0.93500
C544        C  0.45283653  0.58744273  0.30080614     0.92600
C545        C  0.47349231  0.66720206  0.26464054     0.84800
C546        C  0.47251537  0.54638448  0.25482109     0.91000
O547        O  0.30977175  0.98186395  0.40646721    -0.72700
O548        O  0.39796008  0.98320209  0.42103800    -0.73700
O549        O  0.33911078  0.97420984  0.44520980    -0.62300
O550        O  0.36371650  0.49754209  0.38678874    -0.70700
O551        O  0.38454071  0.55408602  0.39368335    -0.70300
O552        O  0.36197498  0.53701430  0.45392555    -0.61500
O553        O  0.41978265  0.54519492  0.42833503    -0.74000
O554        O  0.32346420  0.53956440  0.41870308    -0.72800
Cu555      Cu  0.35382654  0.98200228  0.41362336     1.04600
Cu556      Cu  0.37308985  0.54590521  0.42380122     1.04300
C557        C  0.29676688  0.50895748  0.41469308     0.93500
C558        C  0.41980580  0.51575576  0.42783921     0.92600
C559        C  0.34491764  0.50647612  0.46207354     0.84800
C560        C  0.38137987  0.53018851  0.38098383     0.91000
O561        O  0.04415894  0.97445852  0.58298285    -0.72700
O562        O  0.12982073  0.97016672  0.59485367    -0.73700
O563        O  0.08915380  0.48829053  0.62290916    -0.62300
O564        O  0.09278142  0.96787117  0.55723366    -0.70700
O565        O  0.12926749  0.52775064  0.55543769    -0.70300
O566        O  0.12291529  0.54516419  0.61565240    -0.61500
O567        O  0.16910094  0.52887259  0.59146420    -0.74000
O568        O  0.08075860  0.53638213  0.57985471    -0.72800
Cu569      Cu  0.08651493  0.97209927  0.58924413     1.04600
Cu570      Cu  0.12694241  0.53649048  0.58553577     1.04300
C571        C  0.05103902  0.50734804  0.58045122     0.93500
C572        C  0.16521590  0.49824866  0.59562715     0.92600
C573        C  0.10372633  0.52092188  0.62861897     0.84800
C574        C  0.11229308  0.49732007  0.54724461     0.91000
O575        O  0.13528070  0.66024770  0.74020337    -0.72700
O576        O  0.04845505  0.57254087  0.75289226    -0.73700
O577        O  0.09552071  0.63058323  0.77776098    -0.62300
O578        O  0.09025054  0.59728073  0.71604898    -0.70700
O579        O  0.12181671  0.57305685  0.72613184    -0.70300
O580        O  0.12714813  0.60502680  0.78497573    -0.61500
O581        O  0.07625678  0.54399978  0.76197367    -0.74000
O582        O  0.16934268  0.63829784  0.74905144    -0.72800
Cu583      Cu  0.09153387  0.61613745  0.74631856     1.04600
Cu584      Cu  0.12492860  0.58926038  0.75571567     1.04300
C585        C  0.16590136  0.66488418  0.74358184     0.93500
C586        C  0.04724929  0.54455254  0.75939440     0.92600
C587        C  0.11230701  0.62204596  0.79106739     0.84800
C588        C  0.10420451  0.57804387  0.71192802     0.91000
O589        O  0.31392035  0.00895198  0.60048337    -0.72700
O590        O  0.40423576  0.01450303  0.58851381    -0.73700
O591        O  0.35386257  0.01914094  0.56245468    -0.62300
O592        O  0.36262383  0.99785603  0.62585382    -0.70700
O593        O  0.33401177  0.94136298  0.61690490    -0.70300
O594        O  0.32601619  0.96144472  0.55743320    -0.61500
O595        O  0.37865438  0.95752693  0.58129552    -0.74000
O596        O  0.28359448  0.95194206  0.59326286    -0.72800
Cu597      Cu  0.35945931  0.01212218  0.59466766     1.04600
Cu598      Cu  0.32947297  0.95109868  0.58709312     1.04300
C599        C  0.28443772  0.98094860  0.59813404     0.93500
C600        C  0.40670110  0.98795857  0.58307490     0.92600
C601        C  0.33888687  0.99233350  0.54990386     0.84800
C602        C  0.35039889  0.96513310  0.63071621     0.91000
O603        O  0.32018522  0.87272897  0.78444172    -0.72700
O604        O  0.32676391  0.90314407  0.72508896    -0.73700
O605        O  0.27761443  0.83921988  0.74847025    -0.62300
O606        O  0.37121547  0.93263835  0.76129544    -0.70700
O607        O  0.39831842  0.90295150  0.75330297    -0.70300
O608        O  0.31101265  0.81645281  0.73969632    -0.61500
O609        O  0.35847933  0.87869010  0.71573199    -0.74000
O610        O  0.34981597  0.84506797  0.77766257    -0.72800
Cu611      Cu  0.32266153  0.88777444  0.75494707     1.04600
Cu612      Cu  0.35520717  0.85978508  0.74621210     1.04300
C613        C  0.33402170  0.85490070  0.79089878     0.93500
C614        C  0.34495234  0.89812623  0.71123205     0.92600
C615        C  0.28056437  0.81236956  0.74304214     0.84800
C616        C  0.39986304  0.93126085  0.75951237     0.91000
O617        O  0.30450962  0.81985075  0.93403787    -0.72700
O618        O  0.38656686  0.91091988  0.92038752    -0.73700
O619        O  0.32934929  0.86074001  0.89599754    -0.62300
O620        O  0.36689164  0.86862033  0.95719594    -0.70700
O621        O  0.39433348  0.84057409  0.94628513    -0.70300
O622        O  0.36003420  0.83446581  0.88863739    -0.61500
O623        O  0.41930291  0.88781530  0.91092837    -0.74000
O624        O  0.33008428  0.78957782  0.92417702    -0.72800
Cu625      Cu  0.34571586  0.86573479  0.92735358     1.04600
Cu626      Cu  0.37688106  0.83699793  0.91726285     1.04300
C627        C  0.30238937  0.79025795  0.93064389     0.93500
C628        C  0.41570784  0.91512050  0.91365946     0.92600
C629        C  0.34071578  0.84670649  0.88245593     0.84800
C630        C  0.38808108  0.85672060  0.96079731     0.91000
O631        O  0.42363662  0.84099782  0.05709875    -0.72700
O632        O  0.44765164  0.83650312  0.11615227    -0.73700
O633        O  0.43846244  0.88636621  0.09227365    -0.62300
O634        O  0.43840586  0.79298276  0.08104380    -0.70700
O635        O  0.49525265  0.82574890  0.07337927    -0.70300
O636        O  0.49541164  0.91389329  0.08465678    -0.61500
O637        O  0.50521369  0.86643242  0.11041129    -0.74000
O638        O  0.48006937  0.87181772  0.04803118    -0.72800
Cu639      Cu  0.43502871  0.83800224  0.08680035     1.04600
Cu640      Cu  0.49591043  0.87035753  0.07870553     1.04300
C641        C  0.44718509  0.85842551  0.04334179     0.93500
C642        C  0.47895590  0.85053191  0.12319438     0.92600
C643        C  0.46817328  0.91518094  0.09020365     0.84800
C644        C  0.46834969  0.79557774  0.07655033     0.91000
O645        O  0.09031784  0.63785510  0.89011524    -0.72700
O646        O  0.06559966  0.63077023  0.95014892    -0.73700
O647        O  0.12927338  0.67830207  0.92640347    -0.62300
O648        O  0.03211808  0.58801206  0.91410627    -0.70700
O649        O  0.05988441  0.55831401  0.92022460    -0.70300
O650        O  0.15089611  0.64270724  0.93153451    -0.61500
O651        O  0.08970398  0.59784551  0.95740242    -0.74000
O652        O  0.11542636  0.60491924  0.89395586    -0.72800
Cu653      Cu  0.07869999  0.63518942  0.92012945     1.04600
Cu654      Cu  0.10502352  0.60005061  0.92609164     1.04300
C655        C  0.10457284  0.62150365  0.88206744     0.93500
C656        C  0.07134357  0.61206457  0.96311725     0.92600
C657        C  0.15582593  0.67380182  0.93019143     0.84800
C658        C  0.03199742  0.55849189  0.91500168     0.91000
O659        O  0.47037817  0.64832799  0.07718509    -0.72700
O660        O  0.47081968  0.56052824  0.08816529    -0.73700
O661        O  0.46098574  0.60648542  0.11435472    -0.62300
O662        O  0.48670572  0.60316263  0.05165199    -0.70700
O663        O  0.04263775  0.63449500  0.06088532    -0.70300
O664        O  0.01866155  0.63738338  0.12030599    -0.61500
O665        O  0.02776598  0.58838452  0.09584874    -0.74000
O666        O  0.02695144  0.68132924  0.08519271    -0.72800
Cu667      Cu  0.47026297  0.60382229  0.08242729     1.04600
Cu668      Cu  0.03100419  0.63665579  0.09072094     1.04300
C669        C  0.99718608  0.67862388  0.08003299     0.93500
C670        C  0.99799043  0.55954254  0.09407714     0.92600
C671        C  0.48713789  0.62195692  0.12727328     0.84800
C672        C  0.01947474  0.61685931  0.04702197     0.91000
C673        C  0.01000482  0.60516293  0.00805175    -0.12000
C674        C  0.03192891  0.61261873  0.02573061     0.05000
C675        C  0.06588687  0.61611215  0.02268171    -0.07300
C676        C  0.07708083  0.61283215  0.00237226    -0.08100
C677        C  0.05604371  0.60775577  0.98465980    -0.02600
C678        C  0.02192957  0.60338850  0.98767333     0.04200
N679        N  0.99879505  0.59694003  0.97016519     0.66700
H680        H  0.48409340  0.60156294  0.00984397     0.15600
H681        H  0.10329872  0.61668561  0.00031759     0.15300
N682        N  0.09027759  0.62438859  0.03975682     0.74400
O683        O  0.47614837  0.56467844  0.96609150    -0.39000
O684        O  0.99529541  0.62194333  0.96294569    -0.39000
O685        O  0.09993977  0.60253472  0.04463820    -0.39700
O686        O  0.10983010  0.65633275  0.04483233    -0.39800
C687        C  0.50721611  0.77081166  0.08456361    -0.12000
C688        C  0.47450331  0.76495542  0.07671364     0.05000
C689        C  0.45011169  0.73104399  0.06930996    -0.07300
C690        C  0.45877338  0.70407764  0.06981445    -0.08100
C691        C  0.49141046  0.70976225  0.07796768    -0.02600
C692        C  0.01592058  0.74374135  0.08532004     0.04200
N693        N  0.04878536  0.75133756  0.09455570     0.66700
H694        H  0.02649399  0.79642607  0.09055158     0.15600
H695        H  0.43946068  0.67837281  0.06395994     0.15300
N696        N  0.41691520  0.72361309  0.06066678     0.74400
O697        O  0.07647299  0.76640908  0.08346134    -0.39000
O698        O  0.05140992  0.75143271  0.11448319    -0.39000
O699        O  0.41347737  0.72366093  0.04080593    -0.39700
O700        O  0.38968502  0.70873646  0.07216288    -0.39800
C701        C  0.50757745  0.98036233  0.09227273    -0.12000
C702        C  0.47292879  0.95111959  0.09351629     0.05000
C703        C  0.44489746  0.95774209  0.09669549    -0.07300
C704        C  0.45993448  0.49733397  0.10464582    -0.08100
C705        C  0.49348130  0.52437239  0.09789501    -0.02600
C706        C  0.01838852  0.51492090  0.09191945     0.04200
N707        N  0.05245705  0.54071365  0.08445208     0.66700
H708        H  0.03018689  0.97640552  0.09047211     0.15600
H709        H  0.44038062  0.50387212  0.10988361     0.15300
N710        N  0.40936262  0.92970880  0.09925923     0.74400
O711        O  0.07773653  0.55447784  0.09744252    -0.39000
O712        O  0.05912466  0.54117531  0.06496517    -0.39000
O713        O  0.39671763  0.92143991  0.11771797    -0.39700
O714        O  0.38852906  0.92075690  0.08370715    -0.39800
C715        C  0.22093096  0.69727607  0.92566095    -0.12000
C716        C  0.19338718  0.70346252  0.93199977     0.05000
C717        C  0.20294309  0.73687706  0.94031196    -0.07300
C718        C  0.23864317  0.76355088  0.94082533    -0.08100
C719        C  0.26615349  0.75822769  0.93320044    -0.02600
C720        C  0.25680629  0.72395872  0.92631894     0.04200
N721        N  0.28306571  0.71551462  0.91994253     0.66700
H722        H  0.21462186  0.67158574  0.91979734     0.15600
H723        H  0.24458780  0.78897443  0.94696848     0.15300
N724        N  0.17708778  0.74401238  0.94913659     0.74400
O725        O  0.29468938  0.70245762  0.93338282    -0.39000
O726        O  0.28775189  0.71269205  0.90046468    -0.39000
O727        O  0.17214520  0.74139069  0.96892642    -0.39700
O728        O  0.16670630  0.76146892  0.93842519    -0.39800
C729        C  0.43671959  0.97964975  0.91586573    -0.12000
C730        C  0.44408222  0.95268684  0.90997814     0.05000
C731        C  0.47770590  0.96304465  0.90155061    -0.07300
C732        C  0.00627511  0.49410736  0.90843708    -0.08100
C733        C  0.00061873  0.52314442  0.91055013    -0.02600
C734        C  0.46598666  0.51659668  0.91004261     0.04200
N735        N  0.45815019  0.54462281  0.90977580     0.66700
H736        H  0.41116995  0.97310574  0.92209946     0.15600
H737        H  0.03276010  0.49826824  0.90769708     0.15300
N738        N  0.98692947  0.93790876  0.89408208     0.74400
O739        O  0.45540920  0.55667231  0.89214173    -0.39000
O740        O  0.44478832  0.55018574  0.92600648    -0.39000
O741        O  0.98687513  0.93277429  0.87439270    -0.39700
O742        O  0.00318308  0.92794829  0.90623636    -0.39800
C743        C  0.39072084  0.86585869  0.99994501    -0.12000
C744        C  0.40586020  0.86104963  0.98165393     0.05000
C745        C  0.43728791  0.85906632  0.98375558    -0.07300
C746        C  0.45161647  0.86026988  0.00386276    -0.08100
C747        C  0.43501705  0.86272422  0.02216128    -0.02600
C748        C  0.40470967  0.86638560  0.02001196     0.04200
N749        N  0.38800639  0.87137064  0.03807129     0.66700
H750        H  0.36726891  0.86808359  0.99879147     0.15600
H751        H  0.47483471  0.85766356  0.00517309     0.15300
N752        N  0.45498890  0.85534960  0.96573412     0.74400
O753        O  0.39523930  0.90227970  0.04282141    -0.39000
O754        O  0.36016187  0.84550032  0.04528964    -0.39000
O755        O  0.48265727  0.88198241  0.95899632    -0.39700
O756        O  0.44880836  0.82493008  0.96049693    -0.39800
C757        C  0.31091275  0.85617746  0.82693338    -0.12000
C758        C  0.33218358  0.84767515  0.81408934     0.05000
C759        C  0.35326773  0.83603920  0.82408054    -0.07300
C760        C  0.35389749  0.83460293  0.84617080    -0.08100
C761        C  0.33445081  0.84524252  0.85912791    -0.02600
C762        C  0.31212846  0.85542076  0.84917375     0.04200
N763        N  0.29113833  0.86585656  0.86115100     0.66700
H764        H  0.29404153  0.86474092  0.81976312     0.15600
H765        H  0.37122829  0.82639833  0.85308828     0.12900
N766        N  0.37603561  0.82764235  0.81232305     0.74400
O767        O  0.30259687  0.89827928  0.86434388    -0.39000
O768        O  0.25859266  0.84434651  0.86337429    -0.39000
O769        O  0.40824248  0.85065925  0.81054080    -0.39700
O770        O  0.36661955  0.79565075  0.80912682    -0.39800
C771        C  0.35905005  0.92240115  0.65228901    -0.12000
C772        C  0.35513188  0.95258762  0.65182316     0.05000
C773        C  0.35161974  0.96638833  0.67119955    -0.07300
C774        C  0.34915826  0.94846011  0.69020210    -0.08100
C775        C  0.35088143  0.91701191  0.69054684    -0.02600
C776        C  0.35736480  0.90488282  0.67132218     0.04200
N777        N  0.36057778  0.87395765  0.67054294     0.66700
H778        H  0.36243818  0.91163866  0.63764227     0.15600
H779        H  0.34541535  0.95910098  0.70478726     0.15300
N780        N  0.34873602  0.99747652  0.67190219     0.74400
O781        O  0.33362739  0.84452210  0.66661256    -0.39000
O782        O  0.39080111  0.87727570  0.66852095    -0.39000
O783        O  0.31881000  0.99458205  0.67459804    -0.39700
O784        O  0.37611786  0.02689180  0.67515535    -0.39800
C785        C  0.08084413  0.61973967  0.82408238    -0.12000
C786        C  0.11268948  0.62838799  0.81409735     0.05000
C787        C  0.14226046  0.63518492  0.82672145    -0.07300
C788        C  0.13903135  0.63148616  0.84883111    -0.08100
C789        C  0.10688199  0.62183968  0.85871823    -0.02600
C790        C  0.07768966  0.61642107  0.84616103     0.04200
N791        N  0.04399537  0.60568330  0.85549065     0.66700
H792        H  0.05780246  0.61355988  0.81470311     0.15600
H793        H  0.16183267  0.63704435  0.85827218     0.15300
N794        N  0.17611793  0.64698888  0.81737691     0.74400
O795        O  0.03480474  0.62843729  0.85870396    -0.39000
O796        O  0.02079786  0.57338174  0.85552365    -0.39000
O797        O  0.19813085  0.67963908  0.81697294    -0.39700
O798        O  0.18686021  0.62531164  0.81474145    -0.39800
C799        C  0.48193058  0.52010839  0.76221971    -0.12000
C800        C  0.01098358  0.51374506  0.76298830     0.05000
C801        C  0.99968231  0.98039587  0.76323477    -0.07300
C802        C  0.46407981  0.95389399  0.76412005    -0.08100
C803        C  0.43612833  0.96140085  0.76374033    -0.02600
C804        C  0.44679461  0.49244220  0.76161115     0.04200
N805        N  0.41931522  0.50088850  0.75957482     0.66700
H806        H  0.98672769  0.54660154  0.76141977     0.15600
H807        H  0.45861434  0.92693393  0.76385449     0.15300
N808        N  0.02607414  0.97047573  0.76117365     0.74400
O809        O  0.40798575  0.50847231  0.77599613    -0.39000
O810        O  0.41339633  0.50970804  0.74165677    -0.39000
O811        O  0.03545989  0.96041162  0.77741290    -0.39700
O812        O  0.03227413  0.96254359  0.74307205    -0.39800
C813        C  0.18799042  0.72995014  0.74091580    -0.12000
C814        C  0.19598762  0.70228266  0.74216915     0.05000
C815        C  0.23177694  0.71172241  0.74310169    -0.07300
C816        C  0.25813919  0.74747300  0.74276483    -0.08100
C817        C  0.25021230  0.77514621  0.74189193    -0.02600
C818        C  0.21441149  0.76581887  0.74095948     0.04200
N819        N  0.20410058  0.79206283  0.73995350     0.66700
H820        H  0.16087683  0.72394000  0.74032848     0.15600
H821        H  0.28520569  0.75341262  0.74377270     0.15300
N822        N  0.24219921  0.68564036  0.74462746     0.74400
O823        O  0.19745452  0.80050654  0.72212596    -0.39000
O824        O  0.19273813  0.79929297  0.75649774    -0.39000
O825        O  0.25348377  0.67784000  0.72827289    -0.39700
O826        O  0.24913562  0.67806944  0.76263735    -0.39800
C827        C  0.01308780  0.53398108  0.58376594    -0.12000
C828        C  0.01704603  0.50590955  0.57684977     0.05000
C829        C  0.47973289  0.96854775  0.56986782    -0.07300
C830        C  0.44631579  0.96515938  0.57192260    -0.08100
C831        C  0.44260916  0.99334112  0.57925636    -0.02600
C832        C  0.47980723  0.53055863  0.58608214     0.04200
N833        N  0.47773177  0.55977582  0.59455169     0.66700
H834        H  0.03587156  0.55832811  0.58871030     0.15600
H835        H  0.42327569  0.94015694  0.56819401     0.15300
N836        N  0.98187937  0.93910160  0.56191918     0.74400
O837        O  0.47823640  0.56368096  0.61439679    -0.39000
O838        O  0.48456957  0.58563197  0.58265444    -0.39000
O839        O  0.97362583  0.91324269  0.57412408    -0.39700
O840        O  0.48311280  0.93447092  0.54273029    -0.39800
C841        C  0.23002565  0.52139937  0.59370710    -0.12000
C842        C  0.19635772  0.49287463  0.59789599     0.05000
C843        C  0.18976570  0.95956039  0.59025055    -0.07300
C844        C  0.21970127  0.95582547  0.59229654    -0.08100
C845        C  0.25179919  0.98370705  0.59962777    -0.02600
C846        C  0.25989457  0.51751146  0.59384347     0.04200
N847        N  0.29277481  0.54712883  0.58750738     0.66700
H848        H  0.23327189  0.54682216  0.58958051     0.15600
H849        H  0.21809440  0.93148590  0.58721733     0.15300
N850        N  0.15873542  0.93091027  0.58114074     0.74400
O851        O  0.30085334  0.55151752  0.56809406    -0.39000
O852        O  0.30892272  0.57261487  0.60015592    -0.39000
O853        O  0.15695839  0.92709599  0.56126387    -0.39700
O854        O  0.13851445  0.90505518  0.59270585    -0.39800
C855        C  0.09613221  0.57668030  0.67261341    -0.12000
C856        C  0.10035818  0.56094043  0.69082248     0.05000
C857        C  0.10191516  0.52935713  0.68844906    -0.07300
C858        C  0.10083833  0.51534091  0.66820823    -0.08100
C859        C  0.09879211  0.53237525  0.64998527    -0.02600
C860        C  0.09559917  0.56298224  0.65240352     0.04200
N861        N  0.09148587  0.58054643  0.63445568     0.66700
H862        H  0.09429179  0.60032901  0.67396048     0.15600
H863        H  0.10307186  0.49192602  0.66675050     0.15300
N864        N  0.10401490  0.51059658  0.70640155     0.74400
O865        O  0.06078276  0.57292342  0.62886703    -0.39000
O866        O  0.11744965  0.60925173  0.62826666    -0.39000
O867        O  0.07667163  0.48270876  0.71212721    -0.39700
O868        O  0.13382524  0.51579686  0.71227005    -0.39800
C869        C  0.35957915  0.53635901  0.49735250    -0.12000
C870        C  0.34106479  0.99669214  0.48110228     0.05000
C871        C  0.32774525  0.96443218  0.49200016    -0.07300
C872        C  0.32605880  0.96387771  0.51420422    -0.08100
C873        C  0.33725155  0.99497537  0.52629232    -0.02600
C874        C  0.35985837  0.53636241  0.51960050     0.04200
N875        N  0.38145422  0.56871206  0.53057092     0.66700
H876        H  0.37616772  0.56112502  0.48940290     0.15600
H877        H  0.31689675  0.93876797  0.52194859     0.15300
N878        N  0.31701201  0.93206079  0.48101470     0.74400
O879        O  0.41399720  0.57965622  0.53267544    -0.39000
O880        O  0.33433935  0.06866024  0.52755048    -0.39000
O881        O  0.33727741  0.91928664  0.48075127    -0.39700
O882        O  0.28486476  0.91252426  0.47637266    -0.39800
C883        C  0.41498527  0.53626700  0.32383009    -0.12000
C884        C  0.44019786  0.57252276  0.32231959     0.05000
C885        C  0.44721048  0.59365768  0.34042048    -0.07300
C886        C  0.42788276  0.57884167  0.35907813    -0.08100
C887        C  0.40124684  0.54281894  0.36043585    -0.02600
C888        C  0.39587628  0.52126501  0.34261996     0.04200
N889        N  0.36527780  0.98721234  0.33827134     0.66700
H890        H  0.40916984  0.51964242  0.31002419     0.15600
H891        H  0.43368009  0.59612019  0.37254426     0.15300
N892        N  0.47199240  0.63065215  0.33985306     0.74400
O893        O  0.33608103  0.98521226  0.33420372    -0.39000
O894        O  0.36782183  0.95976501  0.33713461    -0.39000
O895        O  0.46074917  0.65205776  0.33794100    -0.39700
O896        O  0.50276194  0.64168656  0.34688573    -0.39800
C897        C  0.01215160  0.64840013  0.16249500    -0.12000
C898        C  0.48324506  0.62188332  0.15069114     0.05000
C899        C  0.45538972  0.59391173  0.16176978    -0.07300
C900        C  0.45624874  0.59315762  0.18395442    -0.08100
C901        C  0.48481886  0.61940533  0.19571348    -0.02600
C902        C  0.51308476  0.64690043  0.18463246     0.04200
N903        N  0.04407801  0.67352163  0.19542059     0.66700
H904        H  0.03431260  0.66968830  0.15437179     0.15600
H905        H  0.43457039  0.57124780  0.19201094     0.15300
N906        N  0.42724274  0.56478111  0.15091000     0.74400
O907        O  0.07062888  0.66953009  0.19713397    -0.39000
O908        O  0.54719944  0.70379531  0.19764191    -0.39000
O909        O  0.42886940  0.53703347  0.14819186    -0.39700
O910        O  0.39776820  0.56329705  0.14935061    -0.39800
C911        C  0.10954287  0.01943076  0.48814174    -0.12000
C912        C  0.12200318  0.99912858  0.47839136     0.05000
C913        C  0.13035357  0.97747874  0.49100596    -0.07300
C914        C  0.12462733  0.97532078  0.51294342    -0.08100
C915        C  0.11100845  0.99475035  0.52254237    -0.02600
C916        C  0.10392367  0.01738625  0.51001238     0.04200
N917        N  0.11248380  0.55288274  0.52076604     0.66700
H918        H  0.10200515  0.03516377  0.47864929     0.15600
H919        H  0.13157963  0.95919630  0.52248840     0.15300
N920        N  0.14538551  0.95808993  0.48184000     0.74400
O921        O  0.10900250  0.06975893  0.52239364    -0.39000
O922        O  0.08326082  0.55195082  0.52239920    -0.39000
O923        O  0.17847507  0.97133382  0.48214894    -0.39700
O924        O  0.12610556  0.92531368  0.47893372    -0.39800
C925        C  0.20711876  0.96732893  0.39827923    -0.12000
C926        C  0.19891995  0.98910027  0.41029236     0.05000
C927        C  0.21757225  0.51550732  0.39633012    -0.07300
C928        C  0.25253341  0.52308268  0.39935393    -0.08100
C929        C  0.26016425  0.50273665  0.41309779    -0.02600
C930        C  0.24214624  0.97446311  0.39660475     0.04200
N931        N  0.24904532  0.95222879  0.38324257     0.66700
H932        H  0.18649307  0.94532392  0.38969371     0.15600
H933        H  0.27363509  0.54450503  0.39064446     0.15300
N934        N  0.21149074  0.53689942  0.38172984     0.74400
O935        O  0.24356604  0.92288333  0.39025626    -0.39000
O936        O  0.25145345  0.95750393  0.36348694    -0.39000
O937        O  0.21845475  0.56743130  0.38729602    -0.39700
O938        O  0.20863200  0.52940084  0.36225180    -0.39800
C939        C  0.00921920  0.52565096  0.41606536    -0.12000
C940        C  0.01209873  0.98984590  0.42395621     0.05000
C941        C  0.48165417  0.96885613  0.43614963    -0.07300
C942        C  0.45520056  0.97813058  0.43778198    -0.08100
C943        C  0.45211199  0.51281834  0.42966042    -0.02600
C944        C  0.48331678  0.53546197  0.41865496     0.04200
N945        N  0.48818798  0.56698740  0.40874755     0.66700
H946        H  0.03237299  0.54323197  0.40698892     0.15600
H947        H  0.43136391  0.96088549  0.44642757     0.15300
N948        N  0.47641848  0.93756756  0.44650118     0.74400
O949        O  0.00656152  0.59590563  0.41788246    -0.39000
O950        O  0.48221063  0.56670498  0.38915795    -0.39000
O951        O  0.48216062  0.93848970  0.46615915    -0.39700
O952        O  0.45719557  0.90811914  0.43770259    -0.39800
C953        C  0.46704722  0.74970705  0.27526936    -0.12000
C954        C  0.49682426  0.77577301  0.26417440     0.05000
C955        C  0.01854076  0.76557398  0.25335022    -0.07300
C956        C  0.50948716  0.72970047  0.25355266    -0.08100
C957        C  0.47933783  0.70370583  0.26427340    -0.02600
C958        C  0.45802839  0.71406029  0.27521335     0.04200
N959        N  0.42773986  0.68912110  0.28684659     0.66700
H960        H  0.45016386  0.75685728  0.28384323     0.15600
H961        H  0.02666705  0.72260329  0.24524301     0.15300
N962        N  0.04790296  0.78992865  0.24080468     0.74400
O963        O  0.43082322  0.68494363  0.30636474    -0.39000
O964        O  0.39743664  0.67885412  0.27927540    -0.39000
O965        O  0.07878421  0.80084303  0.24760432    -0.39700
O966        O  0.04333730  0.79284936  0.22131464    -0.39800
C967        C  0.50949447  0.02091879  0.23835263    -0.12000
C968        C  0.47802744  0.51567735  0.25136366     0.05000
C969        C  0.95293357  0.48337772  0.24304128    -0.07300
C970        C  0.96067505  0.45603321  0.24078050    -0.08100
C971        C  0.49039535  0.95876483  0.24298019    -0.02600
C972        C  0.51722092  0.99340520  0.23824766     0.04200
N973        N  0.55260947  0.00161956  0.23400419     0.66700
H974        H  0.53078210  0.04741707  0.23540654     0.15600
H975        H  0.94030425  0.43087934  0.23481207     0.15300
N976        N  0.91882973  0.47699032  0.23687379     0.74400
O977        O  0.56252319  0.00385949  0.21499221    -0.39000
O978        O  0.57556826  0.01577481  0.24836815    -0.39000
O979        O  0.91275299  0.47873067  0.21748521    -0.39700
O980        O  0.89317117  0.46038577  0.24936874    -0.39800
C981        C  0.03082365  0.91409123  0.35407456    -0.12000
C982        C  0.06207580  0.94738490  0.35436776     0.05000
C983        C  0.07575646  0.96447187  0.33485350    -0.07300
C984        C  0.06000974  0.94695521  0.31585936    -0.08100
C985        C  0.03014570  0.91277501  0.31561334    -0.02600
C986        C  0.01469505  0.89690273  0.33508837     0.04200
N987        N  0.48370439  0.86267654  0.33611639     0.66700
H988        H  0.01890485  0.90058651  0.36894146     0.15600
H989        H  0.07181583  0.96026644  0.30090569     0.15300
N990        N  0.10624364  0.99882485  0.33386428     0.74400
O991        O  0.48716513  0.83583527  0.33801340    -0.39000
O992        O  0.45444538  0.86021782  0.34064729    -0.39000
O993        O  0.13537754  0.00187411  0.32834164    -0.39700
O994        O  0.10214295  0.02536412  0.33268311    -0.39800
C995        C  0.45185352  0.83685035  0.15896558    -0.12000
C996        C  0.48262422  0.84855694  0.14653218     0.05000
C997        C  0.01482739  0.85810492  0.15689437    -0.07300
C998        C  0.01573885  0.85779885  0.17910388    -0.08100
C999        C  0.48515640  0.84834430  0.19150382    -0.02600
C1000       C  0.45281074  0.83666635  0.18107407     0.04200
N1001       N  0.42078385  0.82593015  0.19246686     0.66700
H1002       H  0.42663997  0.82870731  0.15162251     0.15600
H1003       H  0.04079727  0.86592349  0.18665648     0.15300
N1004       N  0.04666400  0.86829886  0.14541001     0.74400
O1005       O  0.41044385  0.84788940  0.19530583    -0.39000
O1006       O  0.39896421  0.79340950  0.19442873    -0.39000
O1007       O  0.06970962  0.90058898  0.14430691    -0.39700
O1008       O  0.05558202  0.84545340  0.14175755    -0.39800
O1009       O  0.54070464  0.39667212  0.28067706    -0.72700
O1010       O  0.51711063  0.37145595  0.22088013    -0.73700
O1011       O  0.52640335  0.42895224  0.24660108    -0.62300
O1012       O  0.52662709  0.33600583  0.25519973    -0.70700
O1013       O  0.97078262  0.31220940  0.26475670    -0.70300
O1014       O  0.96917821  0.39960078  0.25256666    -0.61500
O1015       O  0.96016012  0.34223119  0.22723420    -0.74000
O1016       O  0.98472966  0.37428063  0.28952800    -0.72800
Cu1017     Cu  0.52965087  0.38401206  0.25063081     1.04600
Cu1018     Cu  0.96920655  0.35586581  0.25887967     1.04300
C1019       C  0.51768431  0.39291257  0.29433853     0.93500
C1020       C  0.98605277  0.35358722  0.21406946     0.92600
C1021       C  0.49666586  0.42801973  0.24838470     0.84800
C1022       C  0.49756804  0.30889960  0.26106886     0.91000
O1023       O  0.56512178  0.44231733  0.38724760    -0.72700
O1024       O  0.58798486  0.45905948  0.44758826    -0.73700
O1025       O  0.53234056  0.45608255  0.42261054    -0.62300
O1026       O  0.62511567  0.45341651  0.41249150    -0.70700
O1027       O  0.65139872  0.51073834  0.40591943    -0.70300
O1028       O  0.56434039  0.51307182  0.41551103    -0.61500
O1029       O  0.61741436  0.51696118  0.44305422    -0.74000
O1030       O  0.59396250  0.49921938  0.37899604    -0.72800
Cu1031     Cu  0.57664455  0.45061282  0.41755318     1.04600
Cu1032     Cu  0.60779959  0.51196466  0.41061171     1.04300
C1033       C  0.57467702  0.46664667  0.37355542     0.93500
C1034       C  0.60570529  0.48973892  0.45530222     0.92600
C1035       C  0.53499140  0.48670125  0.42074209     0.84800
C1036       C  0.65325552  0.48294156  0.40816652     0.91000
O1037       O  0.94812636  0.10319971  0.22263460    -0.72700
O1038       O  0.93009786  0.07699131  0.28255216    -0.73700
O1039       O  0.94144215  0.13777144  0.25869283    -0.62300
O1040       O  0.94155942  0.04532461  0.24653485    -0.70700
O1041       O  0.99900660  0.07455269  0.25298076    -0.70300
O1042       O  0.99908604  0.16274784  0.26428234    -0.61500
O1043       O  0.98712709  0.10375003  0.29031906    -0.74000
O1044       O  0.00602500  0.13041306  0.22699845    -0.72800
Cu1045     Cu  0.93829445  0.08994679  0.25251452     1.04600
Cu1046     Cu  0.99980223  0.11888600  0.25897244     1.04300
C1047       C  0.97900181  0.12016284  0.21486481     0.93500
C1048       C  0.95462309  0.08474207  0.29591047     0.92600
C1049       C  0.97151094  0.16528276  0.26245115     0.84800
C1050       C  0.97135417  0.04621750  0.24768136     0.91000
O1051       O  0.80099524  0.48252538  0.41222532    -0.72700
O1052       O  0.89117533  0.48684158  0.42456902    -0.73700
O1053       O  0.83402210  0.47872221  0.45006758    -0.62300
O1054       O  0.87250653  0.99671413  0.38292895    -0.70700
O1055       O  0.89524067  0.05326373  0.39091918    -0.70300
O1056       O  0.86748121  0.03153034  0.45078573    -0.61500
O1057       O  0.92678381  0.04085647  0.42621394    -0.74000
O1058       O  0.83283143  0.03828250  0.41480303    -0.72800
Cu1059     Cu  0.84634643  0.48438517  0.41807121     1.04600
Cu1060     Cu  0.88134800  0.04298660  0.42088575     1.04300
C1061       C  0.80609862  0.00868238  0.40914252     0.93500
C1062       C  0.92628248  0.01123421  0.42510760     0.92600
C1063       C  0.84893225  0.00027288  0.45781619     0.84800
C1064       C  0.89075027  0.02949299  0.37767314     0.91000
O1065       O  0.54989858  0.47914102  0.58535297    -0.72700
O1066       O  0.63435917  0.47197663  0.59712288    -0.73700
O1067       O  0.58344244  0.98416802  0.62078098    -0.62300
O1068       O  0.59621222  0.47014046  0.55919850    -0.70700
O1069       O  0.62444225  0.02630010  0.55412899    -0.70300
O1070       O  0.61596712  0.04149133  0.61423886    -0.61500
O1071       O  0.66422577  0.02791098  0.59000436    -0.74000
O1072       O  0.57413436  0.03231248  0.57831578    -0.72800
Cu1073     Cu  0.59151264  0.47539259  0.59145838     1.04600
Cu1074     Cu  0.62104608  0.03402442  0.58411629     1.04300
C1075       C  0.54481128  0.00282646  0.57863929     0.93500
C1076       C  0.66070751  0.99723186  0.59334645     0.92600
C1077       C  0.59713940  0.01652600  0.62688157     0.84800
C1078       C  0.60934888  0.99594840  0.54577006     0.91000
O1079       O  0.63640395  0.15857956  0.73726118    -0.72700
O1080       O  0.54649895  0.07371694  0.75070914    -0.73700
O1081       O  0.59553305  0.13182569  0.77473090    -0.62300
O1082       O  0.58880157  0.09564433  0.71379301    -0.70700
O1083       O  0.61843728  0.06979582  0.72458873    -0.70300
O1084       O  0.62460854  0.10401398  0.78305555    -0.61500
O1085       O  0.57263337  0.04380391  0.76052625    -0.74000
O1086       O  0.66776160  0.13415700  0.74728132    -0.72800
Cu1087     Cu  0.59102923  0.11598844  0.74365954     1.04600
Cu1088     Cu  0.62201655  0.08700654  0.75404444     1.04300
C1089       C  0.66624080  0.16149675  0.74117056     0.93500
C1090       C  0.54435298  0.04563639  0.75791276     0.92600
C1091       C  0.61107780  0.12257448  0.78849845     0.84800
C1092       C  0.60163953  0.07531887  0.71007095     0.91000
O1093       O  0.81773733  0.50734676  0.60461989    -0.72700
O1094       O  0.90946144  0.51640056  0.59186790    -0.73700
O1095       O  0.85904477  0.52401271  0.56714701    -0.62300
O1096       O  0.86628798  0.49265143  0.62868403    -0.70700
O1097       O  0.83664852  0.43815726  0.61639842    -0.70300
O1098       O  0.83409170  0.46742507  0.55897773    -0.61500
O1099       O  0.88495510  0.46043286  0.58231752    -0.74000
O1100       O  0.78837356  0.45229394  0.59293349    -0.72800
Cu1101     Cu  0.86401593  0.51209801  0.59861541     1.04600
Cu1102     Cu  0.83509873  0.45266967  0.58748798     1.04300
C1103       C  0.78883098  0.48055335  0.59912616     0.93500
C1104       C  0.91262592  0.49084407  0.58517400     0.92600
C1105       C  0.84472261  0.49892662  0.55338006     0.84800
C1106       C  0.85266898  0.45910502  0.63156929     0.91000
O1107       O  0.82208446  0.36968622  0.78203827    -0.72700
O1108       O  0.83214161  0.39508999  0.72192592    -0.73700
O1109       O  0.78179938  0.33389078  0.74574845    -0.62300
O1110       O  0.87494864  0.42735775  0.75821664    -0.70700
O1111       O  0.90263910  0.39722718  0.75345782    -0.70300
O1112       O  0.81497459  0.30943018  0.74070543    -0.61500
O1113       O  0.86389610  0.36930303  0.71555854    -0.74000
O1114       O  0.85188532  0.34135630  0.77879672    -0.72800
Cu1115     Cu  0.82655780  0.38236799  0.75205994     1.04600
Cu1116     Cu  0.85924949  0.35326294  0.74684749     1.04300
C1117       C  0.83509979  0.35233113  0.79039772     0.93500
C1118       C  0.85041546  0.38805081  0.70935738     0.92600
C1119       C  0.78459945  0.30640235  0.74207932     0.84800
C1120       C  0.90376888  0.42608366  0.75788024     0.91000
O1121       O  0.79689119  0.32666023  0.93332600    -0.72700
O1122       O  0.88398973  0.41502724  0.91936854    -0.73700
O1123       O  0.82545864  0.36580089  0.89498464    -0.62300
O1124       O  0.86031196  0.37461673  0.95706392    -0.70700
O1125       O  0.88477799  0.34287394  0.94779491    -0.70300
O1126       O  0.85414670  0.33695647  0.88918044    -0.61500
O1127       O  0.91369299  0.38763957  0.91210495    -0.74000
O1128       O  0.82079776  0.29425941  0.92455177    -0.72800
Cu1129     Cu  0.84059612  0.37142353  0.92661050     1.04600
Cu1130     Cu  0.86912379  0.33923958  0.91826207     1.04300
C1131       C  0.79352933  0.29645350  0.92999996     0.93500
C1132       C  0.91248232  0.41637995  0.91367275     0.92600
C1133       C  0.83584084  0.34986985  0.88220003     0.84800
C1134       C  0.87995932  0.36122393  0.96152971     0.91000
O1135       O  0.91709554  0.34266698  0.05729560    -0.72700
O1136       O  0.94235888  0.33469300  0.11561663    -0.73700
O1137       O  0.93560427  0.38738231  0.09347497    -0.62300
O1138       O  0.93082573  0.29188485  0.07964080    -0.70700
O1139       O  0.98709806  0.32343870  0.07079328    -0.70300
O1140       O  0.99198140  0.41204050  0.08490692    -0.61500
O1141       O  0.99966488  0.36250377  0.10913749    -0.74000
O1142       O  0.97311900  0.37212011  0.04740608    -0.72800
Cu1143     Cu  0.92938566  0.33793635  0.08665543     1.04600
Cu1144     Cu  0.98980252  0.36827334  0.07762026     1.04300
C1145       C  0.94018368  0.36013721  0.04331273     0.93500
C1146       C  0.97374086  0.34753042  0.12228009     0.92600
C1147       C  0.96627689  0.41510371  0.09143978     0.84800
C1148       C  0.96000048  0.29352742  0.07402723     0.91000
O1149       O  0.58352072  0.14086234  0.88636695    -0.72700
O1150       O  0.55747395  0.13612300  0.94578820    -0.73700
O1151       O  0.62002990  0.18420215  0.92223629    -0.62300
O1152       O  0.52580215  0.09036956  0.91075071    -0.70700
O1153       O  0.55574952  0.06276041  0.91688558    -0.70300
O1154       O  0.64318232  0.15057077  0.92977087    -0.61500
O1155       O  0.58096017  0.10317903  0.95414781    -0.74000
O1156       O  0.61199215  0.11148063  0.89179594    -0.72800
Cu1157     Cu  0.57097652  0.13921749  0.91612926     1.04600
Cu1158     Cu  0.59915284  0.10623640  0.92353299     1.04300
C1159       C  0.60004254  0.12618014  0.87917073     0.93500
C1160       C  0.56212625  0.11723286  0.95914459     0.92600
C1161       C  0.64693258  0.18108159  0.92731958     0.84800
C1162       C  0.52715453  0.06159520  0.91184438     0.91000
O1163       O  0.95976123  0.14433101  0.07319441    -0.72700
O1164       O  0.96180887  0.05753454  0.08612161    -0.73700
O1165       O  0.95434513  0.10695129  0.11129097    -0.62300
O1166       O  0.97232164  0.09620038  0.04844222    -0.70700
O1167       O  0.52957112  0.12760652  0.05495195    -0.70300
O1168       O  0.51223016  0.13815012  0.11464893    -0.61500
O1169       O  0.51933172  0.08630999  0.09134421    -0.74000
O1170       O  0.51706877  0.17800480  0.07813695    -0.72800
Cu1171     Cu  0.96010142  0.10034394  0.07946924     1.04600
Cu1172     Cu  0.52158294  0.13379756  0.08488140     1.04300
C1173       C  0.48670014  0.17497625  0.07438385     0.93500
C1174       C  0.48968307  0.05717294  0.09063949     0.92600
C1175       C  0.98187595  0.12399027  0.12297137     0.84800
C1176       C  0.50432984  0.10913090  0.04238725     0.91000
C1177       C  0.50182312  0.11551006  0.00365337    -0.12000
C1178       C  0.51380766  0.10418769  0.02071256     0.05000
C1179       C  0.53951174  0.09411850  0.01710868    -0.07300
C1180       C  0.55427750  0.09754327  0.99692085    -0.08100
C1181       C  0.54427735  0.11142916  0.98007188    -0.02600
C1182       C  0.51677672  0.11943926  0.98350983     0.04200
N1183       N  0.50416984  0.13267387  0.96699350     0.66700
H1184       H  0.98260738  0.12357353  0.00620706     0.15600
H1185       H  0.57427846  0.09024981  0.99464429     0.15300
N1186       N  0.55076459  0.07994220  0.03374220     0.74400
O1187       O  0.97618036  0.11219711  0.95767539    -0.39000
O1188       O  0.51565655  0.16544850  0.96587213    -0.39000
O1189       O  0.53814500  0.04695247  0.03451356    -0.39700
O1190       O  0.57960870  0.09987415  0.04297225    -0.39800
C1191       C  0.00020900  0.26847273  0.07032116    -0.12000
C1192       C  0.96522494  0.26212944  0.07240207     0.05000
C1193       C  0.93789127  0.22683025  0.07426452    -0.07300
C1194       C  0.94580459  0.19934335  0.07413693    -0.08100
C1195       C  0.98087002  0.20579684  0.07266620    -0.02600
C1196       C  0.50811630  0.24114793  0.07053382     0.04200
N1197       N  0.54421369  0.24999481  0.06897952     0.66700
H1198       H  0.52206683  0.29518981  0.06886365     0.15600
H1199       H  0.92410416  0.17270385  0.07588043     0.15300
N1200       N  0.90197795  0.21811803  0.07674121     0.74400
O1201       O  0.55840649  0.25541551  0.05091326    -0.39000
O1202       O  0.56363595  0.26146783  0.08518107    -0.39000
O1203       O  0.88149512  0.20645822  0.06100694    -0.39700
O1204       O  0.88903699  0.21322756  0.09514858    -0.39800
C1205       C  0.00892251  0.47942472  0.09084897    -0.12000
C1206       C  0.97442118  0.45195848  0.09573866     0.05000
C1207       C  0.95007832  0.46124101  0.10365576    -0.07300
C1208       C  0.95187853  0.99259156  0.09700605    -0.08100
C1209       C  0.98625344  0.02173856  0.09421679    -0.02600
C1210       C  0.51433844  0.01522137  0.09270412     0.04200
N1211       N  0.55008139  0.04323626  0.09104793     0.66700
H1212       H  0.52909923  0.47400862  0.08503129     0.15600
H1213       H  0.92963164  0.99668860  0.09883312     0.15300
N1214       N  0.91570236  0.43511680  0.11055012     0.74400
O1215       O  0.56752618  0.05605669  0.10783500    -0.39000
O1216       O  0.56656327  0.04710851  0.07394169    -0.39000
O1217       O  0.91024637  0.42844769  0.13009945    -0.39700
O1218       O  0.88972895  0.42606356  0.09833694    -0.39800
C1219       C  0.71069709  0.20723735  0.91907828    -0.12000
C1220       C  0.68394520  0.21145206  0.92875048     0.05000
C1221       C  0.69411728  0.24251153  0.94044980    -0.07300
C1222       C  0.73007328  0.26884318  0.94154508    -0.08100
C1223       C  0.75682777  0.26507357  0.93127848    -0.02600
C1224       C  0.74653182  0.23337176  0.92019192     0.04200
N1225       N  0.77170529  0.22766070  0.90908993     0.66700
H1226       H  0.70367369  0.18345942  0.91024775     0.15600
H1227       H  0.73698080  0.29258838  0.95035872     0.15300
N1228       N  0.66879223  0.24720095  0.95214621     0.74400
O1229       O  0.78417900  0.21043147  0.91800730    -0.39000
O1230       O  0.77442246  0.23174988  0.88923826    -0.39000
O1231       O  0.66508753  0.24021039  0.97171308    -0.39700
O1232       O  0.65761460  0.26649328  0.94455852    -0.39800
C1233       C  0.93764716  0.48147214  0.90992575    -0.12000
C1234       C  0.94340036  0.45233792  0.90986442     0.05000
C1235       C  0.97830914  0.45918953  0.90790120    -0.07300
C1236       C  0.50338915  0.99911041  0.90063805    -0.08100
C1237       C  0.49653499  0.02565576  0.90802046    -0.02600
C1238       C  0.96278453  0.01576701  0.91521012     0.04200
N1239       N  0.95441049  0.04098217  0.92364078     0.66700
H1240       H  0.91113529  0.47725812  0.91038063     0.15600
H1241       H  0.52941857  0.00629049  0.89492778     0.15300
N1242       N  0.48680814  0.43163450  0.90618138     0.74400
O1243       O  0.93974108  0.05315696  0.91182119    -0.39000
O1244       O  0.95275438  0.04340926  0.94348784    -0.39000
O1245       O  0.49152663  0.42291556  0.88793143    -0.39700
O1246       O  0.49917001  0.42379975  0.92198886    -0.39800
C1247       C  0.88153215  0.36778298  0.00107064    -0.12000
C1248       C  0.89800066  0.36638551  0.98239718     0.05000
C1249       C  0.93108809  0.36769720  0.98400594    -0.07300
C1250       C  0.94537893  0.36744166  0.00389508    -0.08100
C1251       C  0.92745965  0.36588549  0.02254692    -0.02600
C1252       C  0.89589593  0.36761654  0.02098486     0.04200
N1253       N  0.87811471  0.36961553  0.03948519     0.66700
H1254       H  0.85687808  0.36781024  0.00027830     0.15600
H1255       H  0.96996492  0.36727027  0.00466716     0.15300
N1256       N  0.95142095  0.37062128  0.96562060     0.74400
O1257       O  0.88465814  0.39949914  0.04613746    -0.39000
O1258       O  0.85048832  0.34240273  0.04569502    -0.39000
O1259       O  0.97810476  0.40014206  0.96150732    -0.39700
O1260       O  0.94938157  0.34308802  0.95782594    -0.39800
C1261       C  0.81633909  0.36453464  0.82526078    -0.12000
C1262       C  0.83103065  0.34709132  0.81380349     0.05000
C1263       C  0.84237148  0.32695822  0.82521294    -0.07300
C1264       C  0.84107244  0.32656921  0.84734657    -0.08100
C1265       C  0.82927270  0.34647432  0.85888937    -0.02600
C1266       C  0.81536817  0.36440757  0.84749157     0.04200
N1267       N  0.80080205  0.38319779  0.85796312     0.66700
H1268       H  0.80646130  0.37948684  0.81703937     0.15600
H1269       H  0.85075127  0.31135205  0.85546963     0.12900
N1270       N  0.85597564  0.30721269  0.81484837     0.74400
O1271       O  0.81956102  0.41620517  0.86012127    -0.39000
O1272       O  0.76768759  0.36898767  0.85944578    -0.39000
O1273       O  0.88890378  0.31930189  0.81462369    -0.39700
O1274       O  0.83561540  0.27468110  0.81164178    -0.39800
C1275       C  0.83253763  0.40503107  0.65357782    -0.12000
C1276       C  0.85471024  0.44206039  0.65178215     0.05000
C1277       C  0.87884043  0.45980360  0.66837644    -0.07300
C1278       C  0.87930816  0.44081239  0.68633449    -0.08100
C1279       C  0.85646727  0.40411960  0.68808271    -0.02600
C1280       C  0.83319017  0.38624115  0.67137005     0.04200
N1281       N  0.80826888  0.34934366  0.67276757     0.66700
H1282       H  0.81371701  0.39027470  0.64128667     0.15600
H1283       H  0.89656539  0.45503705  0.69939096     0.15300
N1284       N  0.90278922  0.49692212  0.66752502     0.74400
O1285       O  0.77745981  0.33953480  0.67929961    -0.39000
O1286       O  0.81400743  0.32780178  0.66267381    -0.39000
O1287       O  0.89570697  0.51731947  0.67785042    -0.39700
O1288       O  0.93412265  0.50794481  0.66153485    -0.39800
C1289       C  0.57949770  0.12352556  0.82060250    -0.12000
C1290       C  0.61116417  0.12991370  0.81133973     0.05000
C1291       C  0.63966320  0.13548410  0.82461219    -0.07300
C1292       C  0.63567625  0.13353892  0.84672263    -0.08100
C1293       C  0.60359083  0.12603340  0.85590504    -0.02600
C1294       C  0.57530398  0.12104945  0.84261822     0.04200
N1295       N  0.54113385  0.11056812  0.85112023     0.66700
H1296       H  0.55709605  0.11788386  0.81073156     0.15600
H1297       H  0.65769711  0.13822025  0.85666705     0.15300
N1298       N  0.67302914  0.14355118  0.81590522     0.74400
O1299       O  0.53094345  0.13289230  0.85232813    -0.39000
O1300       O  0.51867188  0.07811734  0.85246072    -0.39000
O1301       O  0.69746223  0.17533862  0.81518789    -0.39700
O1302       O  0.68064026  0.11935820  0.81428177    -0.39800
C1303       C  0.98060189  0.02363911  0.76475655    -0.12000
C1304       C  0.50808086  0.01604668  0.76260115     0.05000
C1305       C  0.50333994  0.47885500  0.76501728    -0.07300
C1306       C  0.96825107  0.45097593  0.76456574    -0.08100
C1307       C  0.93960733  0.45715072  0.76198987    -0.02600
C1308       C  0.94497150  0.99687012  0.76529136     0.04200
N1309       N  0.91830672  0.00655443  0.76671958     0.66700
H1310       H  0.48615012  0.05081212  0.76478032     0.15600
H1311       H  0.96357014  0.42432039  0.76547444     0.15300
N1312       N  0.53086737  0.47045019  0.76665505     0.74400
O1313       O  0.91000459  0.01270480  0.78473407    -0.39000
O1314       O  0.91034408  0.01777318  0.75039864    -0.39000
O1315       O  0.53859849  0.46370362  0.78466602    -0.39700
O1316       O  0.53989743  0.46028083  0.75032967    -0.39800
C1317       C  0.69323172  0.22573945  0.73202272    -0.12000
C1318       C  0.69791405  0.19786250  0.73967465     0.05000
C1319       C  0.73139137  0.20657978  0.74768267    -0.07300
C1320       C  0.75869063  0.24192416  0.74801020    -0.08100
C1321       C  0.75375886  0.26974551  0.74081674    -0.02600
C1322       C  0.72046615  0.26122538  0.73271203     0.04200
N1323       N  0.71386116  0.28790238  0.72464261     0.66700
H1324       H  0.66800625  0.22022343  0.72577176     0.15600
H1325       H  0.78383743  0.24765472  0.75453505     0.15300
N1326       N  0.73805203  0.18032582  0.75639715     0.74400
O1327       O  0.71599761  0.29354181  0.70493536    -0.39000
O1328       O  0.69721556  0.29849031  0.73597868    -0.39000
O1329       O  0.75481388  0.16934890  0.74549960    -0.39700
O1330       O  0.73560935  0.17531530  0.77617308    -0.39800
C1331       C  0.50695786  0.02967048  0.58098660    -0.12000
C1332       C  0.51041048  0.00075016  0.57532805     0.05000
C1333       C  0.98685767  0.47434649  0.57010980    -0.07300
C1334       C  0.95320145  0.47022812  0.57244330    -0.08100
C1335       C  0.94884722  0.49725359  0.58113424    -0.02600
C1336       C  0.97347905  0.02636278  0.58308019     0.04200
N1337       N  0.97203876  0.05640868  0.59065960     0.66700
H1338       H  0.53001879  0.05440312  0.58515136     0.15600
H1339       H  0.93049488  0.44558528  0.56777289     0.15300
N1340       N  0.49021737  0.44689532  0.56049244     0.74400
O1341       O  0.97231407  0.06133597  0.61038938    -0.39000
O1342       O  0.97974013  0.08183470  0.57820033    -0.39000
O1343       O  0.48100806  0.41905425  0.57099575    -0.39700
O1344       O  0.99286132  0.44530144  0.54099573    -0.39800
C1345       C  0.72239495  0.01784053  0.60512970    -0.12000
C1346       C  0.69157500  0.99183539  0.59547964     0.05000
C1347       C  0.69321928  0.45957923  0.60255878    -0.07300
C1348       C  0.72333482  0.45571323  0.60284491    -0.08100
C1349       C  0.75687791  0.48443892  0.59871766    -0.02600
C1350       C  0.75187721  0.01348736  0.60750844     0.04200
N1351       N  0.78234784  0.04113546  0.61769675     0.66700
H1352       H  0.72362462  0.04164883  0.61095940     0.15600
H1353       H  0.72045172  0.43026247  0.60645665     0.15300
N1354       N  0.65986515  0.42906261  0.60700927     0.74400
O1355       O  0.80333356  0.06806811  0.60712855    -0.39000
O1356       O  0.78333872  0.04264035  0.63768013    -0.39000
O1357       O  0.64510354  0.40588620  0.59281506    -0.39700
O1358       O  0.65066557  0.42084573  0.62607775    -0.39800
C1359       C  0.58702585  0.06955788  0.67132262    -0.12000
C1360       C  0.59707729  0.05744273  0.68909415     0.05000
C1361       C  0.60263201  0.02819719  0.68641577    -0.07300
C1362       C  0.59983584  0.01324492  0.66627392    -0.08100
C1363       C  0.59196344  0.02690791  0.64843288    -0.02600
C1364       C  0.58463426  0.05481895  0.65119182     0.04200
N1365       N  0.57460153  0.06860653  0.63365347     0.66700
H1366       H  0.58184084  0.09114392  0.67288396     0.15600
H1367       H  0.60566738  0.99212341  0.66445685     0.15300
N1368       N  0.61156426  0.01331778  0.70385849     0.74400
O1369       O  0.54221819  0.05648429  0.62992624    -0.39000
O1370       O  0.59681367  0.09808338  0.62589877    -0.39000
O1371       O  0.58819781  0.98434810  0.71156608    -0.39700
O1372       O  0.64364075  0.02361121  0.70749551    -0.39800
C1373       C  0.84916876  0.02686894  0.49299304    -0.12000
C1374       C  0.83970877  0.50432468  0.48542335     0.05000
C1375       C  0.81785697  0.47284421  0.49644116    -0.07300
C1376       C  0.81787290  0.47291805  0.51860255    -0.08100
C1377       C  0.83995593  0.50367222  0.53046411    -0.02600
C1378       C  0.84722916  0.02620802  0.51524656     0.04200
N1379       N  0.85603335  0.05807014  0.52627571     0.66700
H1380       H  0.85822654  0.05187318  0.48513166     0.15600
H1381       H  0.80151797  0.44802439  0.52650328     0.15300
N1382       N  0.79609037  0.44028951  0.48565866     0.74400
O1383       O  0.88801398  0.07999628  0.53001733    -0.39000
O1384       O  0.86761310  0.58864915  0.53340552    -0.39000
O1385       O  0.80751036  0.41917270  0.48296633    -0.39700
O1386       O  0.76325794  0.42853612  0.48481444    -0.39800
C1387       C  0.91391553  0.03522803  0.31888216    -0.12000
C1388       C  0.94328070  0.06959404  0.31744556     0.05000
C1389       C  0.95671384  0.08935559  0.33613186    -0.07300
C1390       C  0.93936759  0.07539249  0.35548637    -0.08100
C1391       C  0.90886831  0.04155556  0.35677470    -0.02600
C1392       C  0.89677487  0.02115412  0.33820954     0.04200
N1393       N  0.87138165  0.48471141  0.34297265     0.66700
H1394       H  0.90320727  0.01964340  0.30468734     0.15600
H1395       H  0.94962410  0.09143455  0.36954765     0.15300
N1396       N  0.98639521  0.12433653  0.33565288     0.74400
O1397       O  0.84064112  0.47433946  0.33610584    -0.39000
O1398       O  0.88215528  0.46287544  0.34448577    -0.39000
O1399       O  0.98131207  0.15031367  0.33535178    -0.39700
O1400       O  0.01643124  0.12920398  0.34068459    -0.39800
C1401       C  0.51198915  0.13756224  0.15778906    -0.12000
C1402       C  0.98048678  0.12661490  0.14644898     0.05000
C1403       C  0.94944513  0.11714582  0.15797711    -0.07300
C1404       C  0.95037221  0.11732865  0.18019530    -0.08100
C1405       C  0.98162574  0.12610546  0.19151556    -0.02600
C1406       C  0.01294984  0.13717881  0.17995716     0.04200
N1407       N  0.54535943  0.14585805  0.19010284     0.66700
H1408       H  0.53637396  0.14515671  0.14951586     0.15600
H1409       H  0.92599449  0.10942321  0.18855598     0.15300
N1410       N  0.91664026  0.10679933  0.14762816     0.74400
O1411       O  0.55380999  0.12230898  0.19207541    -0.39000
O1412       O  0.06916642  0.17817725  0.19138250    -0.39000
O1413       O  0.89393389  0.07440977  0.14646577    -0.39700
O1414       O  0.90691486  0.12931977  0.14520162    -0.39800
C1415       C  0.61444799  0.52250382  0.48905318    -0.12000
C1416       C  0.61053394  0.49250641  0.47872369     0.05000
C1417       C  0.60693516  0.46376482  0.49125797    -0.07300
C1418       C  0.60750515  0.46574775  0.51345880    -0.08100
C1419       C  0.61121492  0.49567271  0.52372389    -0.02600
C1420       C  0.61417039  0.52412907  0.51122558     0.04200
N1421       N  0.58963087  0.03752551  0.51912795     0.66700
H1422       H  0.61587229  0.54409044  0.47993660     0.15600
H1423       H  0.60510040  0.44381263  0.52265212     0.15300
N1424       N  0.60255935  0.43210112  0.48184749     0.74400
O1425       O  0.64286156  0.58279222  0.52195552    -0.39000
O1426       O  0.55665026  0.02503827  0.51859327    -0.39000
O1427       O  0.62887766  0.42766529  0.48054370    -0.39700
O1428       O  0.57192668  0.40562131  0.48048267    -0.39800
C1429       C  0.69710167  0.46675825  0.42117127    -0.12000
C1430       C  0.68922230  0.48701674  0.40744446     0.05000
C1431       C  0.72644701  0.01833274  0.42105493    -0.07300
C1432       C  0.76137559  0.02538570  0.41951398    -0.08100
C1433       C  0.76985369  0.00374660  0.40745276    -0.02600
C1434       C  0.73208485  0.47458829  0.42425040     0.04200
N1435       N  0.73883309  0.45562235  0.44023569     0.66700
H1436       H  0.67636947  0.44612526  0.43053471     0.15600
H1437       H  0.78166091  0.04712791  0.42844708     0.15300
N1438       N  0.71928406  0.04044518  0.43441352     0.74400
O1439       O  0.74191214  0.46596345  0.45919019    -0.39000
O1440       O  0.73194382  0.42446523  0.43652915    -0.39000
O1441       O  0.71686285  0.03522587  0.45417405    -0.39700
O1442       O  0.72448854  0.06968430  0.42738159    -0.39800
C1443       C  0.51554849  0.02082192  0.41443900    -0.12000
C1444       C  0.50534567  0.49399617  0.42422317     0.05000
C1445       C  0.97469215  0.47197366  0.43623499    -0.07300
C1446       C  0.94856961  0.48148374  0.43874707    -0.08100
C1447       C  0.95825902  0.00806478  0.42737958    -0.02600
C1448       C  0.98880158  0.02930457  0.41548159     0.04200
N1449       N  0.99216527  0.05816747  0.40306474     0.66700
H1450       H  0.53832316  0.03763674  0.40484803     0.15600
H1451       H  0.92475521  0.46371662  0.44724862     0.15300
N1452       N  0.96946281  0.44019389  0.44590514     0.74400
O1453       O  0.51308843  0.09012143  0.41060938    -0.39000
O1454       O  0.98329885  0.05298215  0.38379486    -0.39000
O1455       O  0.97571638  0.44028319  0.46544142    -0.39700
O1456       O  0.95014346  0.41113683  0.43672476    -0.39800
C1457       C  0.96497670  0.24729453  0.27464834    -0.12000
C1458       C  0.99308248  0.27298153  0.26230386     0.05000
C1459       C  0.51326200  0.26225243  0.25037900    -0.07300
C1460       C  0.00509474  0.22704339  0.25055183    -0.08100
C1461       C  0.97681090  0.20145209  0.26262173    -0.02600
C1462       C  0.95661693  0.21180890  0.27479801     0.04200
N1463       N  0.92840423  0.18715436  0.28791946     0.66700
H1464       H  0.94912511  0.25466788  0.28413172     0.15600
H1465       H  0.52079802  0.21941465  0.24117731     0.15300
N1466       N  0.54042779  0.28607582  0.23635754     0.74400
O1467       O  0.93438081  0.18462184  0.30722523    -0.39000
O1468       O  0.89698666  0.17537297  0.28187079    -0.39000
O1469       O  0.57225318  0.29732879  0.24128929    -0.39700
O1470       O  0.53276471  0.28755650  0.21723619    -0.39800
C1471       C  0.01203283  0.52056654  0.25674051    -0.12000
C1472       C  0.97556470  0.01511889  0.24337033     0.05000
C1473       C  0.44797375  0.97994472  0.24600991    -0.07300
C1474       C  0.45558093  0.95245641  0.24566080    -0.08100
C1475       C  0.99361857  0.46030551  0.24686175    -0.02600
C1476       C  0.01970744  0.49331124  0.25447269     0.04200
N1477       N  0.05335329  0.49914826  0.26134046     0.66700
H1478       H  0.03254230  0.54523655  0.26314392     0.15600
H1479       H  0.43403044  0.92614093  0.24868040     0.15300
N1480       N  0.41284279  0.97184633  0.25099796     0.74400
O1481       O  0.07961469  0.51504391  0.24917604    -0.39000
O1482       O  0.05842447  0.49675987  0.28081981    -0.39000
O1483       O  0.38911724  0.95756120  0.23706698    -0.39700
O1484       O  0.40397947  0.97003217  0.27020149    -0.39800
C1485       C  0.52453439  0.43551445  0.34885761    -0.12000
C1486       C  0.56137323  0.45491209  0.35176189     0.05000
C1487       C  0.58319957  0.45396124  0.33574714    -0.07300
C1488       C  0.56814570  0.43314355  0.31764241    -0.08100
C1489       C  0.53113704  0.41280838  0.31478927    -0.02600
C1490       C  0.50933691  0.41496698  0.33056668     0.04200
N1491       N  0.97133134  0.39169528  0.32973717     0.66700
H1492       H  0.50744936  0.43527782  0.36121718     0.15600
H1493       H  0.58583290  0.43282538  0.30589743     0.15300
N1494       N  0.62071538  0.47234920  0.33803200     0.74400
O1495       O  0.95579382  0.36221338  0.33904151    -0.39000
O1496       O  0.95383069  0.40624633  0.32435665    -0.39000
O1497       O  0.63571183  0.45553209  0.34395806    -0.39700
O1498       O  0.63873447  0.50173720  0.32889266    -0.39800
C1499       C  0.94716850  0.33311002  0.15833145    -0.12000
C1500       C  0.97784828  0.34561262  0.14565821     0.05000
C1501       C  0.51027124  0.35776468  0.15606698    -0.07300
C1502       C  0.51164854  0.35819688  0.17828252    -0.08100
C1503       C  0.98135610  0.34732272  0.19075735    -0.02600
C1504       C  0.94860666  0.33399756  0.18048225     0.04200
N1505       N  0.91658002  0.32260073  0.19202338     0.66700
H1506       H  0.92160368  0.32361753  0.15113706     0.15600
H1507       H  0.53725176  0.36871471  0.18561315     0.15300
N1508       N  0.54246367  0.37099242  0.14444348     0.74400
O1509       O  0.90584915  0.34418176  0.19516753    -0.39000
O1510       O  0.89498861  0.28995916  0.19362125    -0.39000
O1511       O  0.56297026  0.40391844  0.14329444    -0.39700
O1512       O  0.55438972  0.35058718  0.14059212    -0.39800
O1513       O  0.54191250  0.90115472  0.28113487    -0.72700
O1514       O  0.52080928  0.87286113  0.22156981    -0.73700
O1515       O  0.52703984  0.93082547  0.24516917    -0.62300
O1516       O  0.53033385  0.83943367  0.25705444    -0.70700
O1517       O  0.97380739  0.81431085  0.26514890    -0.70300
O1518       O  0.97026760  0.89998294  0.25253891    -0.61500
O1519       O  0.96345353  0.84364936  0.22758122    -0.74000
O1520       O  0.98550966  0.87457661  0.28994720    -0.72800
Cu1521     Cu  0.53209918  0.88694878  0.25112034     1.04600
Cu1522     Cu  0.97136220  0.85703484  0.25914956     1.04300
C1523       C  0.51804263  0.89449916  0.29484461     0.93500
C1524       C  0.98963635  0.85468060  0.21467897     0.92600
C1525       C  0.49668795  0.92866469  0.24683754     0.84800
C1526       C  0.50112582  0.81176792  0.26225779     0.91000
O1527       O  0.57272076  0.93854988  0.38981938    -0.72700
O1528       O  0.60018310  0.96217855  0.44914861    -0.73700
O1529       O  0.54129053  0.95398226  0.42483560    -0.62300
O1530       O  0.63498963  0.95359325  0.41444616    -0.70700
O1531       O  0.65960547  0.01043394  0.40645336    -0.70300
O1532       O  0.57127071  0.01011030  0.41537179    -0.61500
O1533       O  0.62666445  0.01958895  0.44228168    -0.74000
O1534       O  0.59931905  0.99435763  0.37949422    -0.72800
Cu1535     Cu  0.58641186  0.94995958  0.41968826     1.04600
Cu1536     Cu  0.61524747  0.01050369  0.41050359     1.04300
C1537       C  0.57945681  0.96129705  0.37535893     0.93500
C1538       C  0.61717202  0.99388745  0.45541764     0.92600
C1539       C  0.54263606  0.98373500  0.42154789     0.84800
C1540       C  0.66254266  0.98354485  0.41021959     0.91000
O1541       O  0.95122096  0.60210177  0.22678211    -0.72700
O1542       O  0.92957610  0.57935503  0.28687883    -0.73700
O1543       O  0.94370546  0.63985210  0.26108698    -0.62300
O1544       O  0.94324439  0.54563071  0.25243789    -0.70700
O1545       O  0.99997079  0.57547063  0.26051217    -0.70300
O1546       O  0.00105398  0.66470927  0.26753470    -0.61500
O1547       O  0.98611299  0.60692165  0.29590217    -0.74000
O1548       O  0.00898059  0.62921190  0.23193066    -0.72800
Cu1549     Cu  0.93990878  0.59094379  0.25668232     1.04600
Cu1550     Cu  0.00097767  0.62014608  0.26434624     1.04300
C1551       C  0.98232147  0.61759360  0.21932375     0.93500
C1552       C  0.95327305  0.58783338  0.30089596     0.92600
C1553       C  0.97383979  0.66751252  0.26472664     0.84800
C1554       C  0.97302104  0.54678396  0.25493924     0.91000
O1555       O  0.80970888  0.98189690  0.40637566    -0.72700
O1556       O  0.89779952  0.98298759  0.42093396    -0.73700
O1557       O  0.83889680  0.97394681  0.44509817    -0.62300
O1558       O  0.86375281  0.49768949  0.38667313    -0.70700
O1559       O  0.88461629  0.55418329  0.39372804    -0.70300
O1560       O  0.86194411  0.53671159  0.45392516    -0.61500
O1561       O  0.91974143  0.54497169  0.42833226    -0.74000
O1562       O  0.82354225  0.53959052  0.41878208    -0.72800
Cu1563     Cu  0.85370789  0.98191245  0.41352570     1.04600
Cu1564     Cu  0.87311612  0.54580284  0.42383183     1.04300
C1565       C  0.79681485  0.50903071  0.41472453     0.93500
C1566       C  0.91971995  0.51551442  0.42775940     0.92600
C1567       C  0.84481802  0.50611680  0.46198665     0.84800
C1568       C  0.88146007  0.53037602  0.38095380     0.91000
O1569       O  0.54436097  0.97438113  0.58312713    -0.72700
O1570       O  0.63015400  0.97027525  0.59470282    -0.73700
O1571       O  0.58920375  0.48869957  0.62289088    -0.62300
O1572       O  0.59293943  0.96798507  0.55723056    -0.70700
O1573       O  0.62950255  0.52804217  0.55543198    -0.70300
O1574       O  0.62310210  0.54554927  0.61562514    -0.61500
O1575       O  0.66922188  0.52910033  0.59148288    -0.74000
O1576       O  0.58105026  0.53686113  0.57978758    -0.72800
Cu1577     Cu  0.58678971  0.97212860  0.58925780     1.04600
Cu1578     Cu  0.62715507  0.53683431  0.58551757     1.04300
C1579       C  0.55128894  0.50787277  0.58037311     0.93500
C1580       C  0.66525619  0.49844698  0.59564929     0.92600
C1581       C  0.60382462  0.52133969  0.62858698     0.84800
C1582       C  0.61243920  0.49761177  0.54724876     0.91000
O1583       O  0.63505882  0.66054013  0.74018320    -0.72700
O1584       O  0.54823100  0.57276749  0.75285654    -0.73700
O1585       O  0.59530978  0.63081450  0.77773168    -0.62300
O1586       O  0.58999843  0.59759047  0.71600189    -0.70700
O1587       O  0.62154165  0.57331963  0.72605385    -0.70300
O1588       O  0.62695118  0.60525790  0.78490952    -0.61500
O1589       O  0.57606363  0.54424260  0.76190800    -0.74000
O1590       O  0.66909330  0.63853755  0.74898837    -0.72800
Cu1591     Cu  0.59130251  0.61640197  0.74628617     1.04600
Cu1592     Cu  0.62469913  0.58950627  0.75564504     1.04300
C1593       C  0.66567360  0.66514896  0.74355264     0.93500
C1594       C  0.54704773  0.54477791  0.75934149     0.92600
C1595       C  0.61212250  0.62228012  0.79101856     0.84800
C1596       C  0.60392628  0.57833645  0.71186550     0.91000
O1597       O  0.81333237  0.00823997  0.60046683    -0.72700
O1598       O  0.90392355  0.01434450  0.58836520    -0.73700
O1599       O  0.85327195  0.01863502  0.56237032    -0.62300
O1600       O  0.86233113  0.99754722  0.62574316    -0.70700
O1601       O  0.83402893  0.94103860  0.61681450    -0.70300
O1602       O  0.82565166  0.96094068  0.55735358    -0.61500
O1603       O  0.87855159  0.95738134  0.58113855    -0.74000
O1604       O  0.78329347  0.95117849  0.59327867    -0.72800
Cu1605     Cu  0.85900777  0.01170495  0.59457321     1.04600
Cu1606     Cu  0.82929608  0.95066684  0.58701250     1.04300
C1607       C  0.78395304  0.98006812  0.59822049     0.93500
C1608       C  0.90651670  0.98787534  0.58290522     0.92600
C1609       C  0.83838832  0.99181679  0.54982242     0.84800
C1610       C  0.85028544  0.96486058  0.63061838     0.91000
O1611       O  0.82032111  0.87292672  0.78443981    -0.72700
O1612       O  0.82688168  0.90329259  0.72509645    -0.73700
O1613       O  0.77765189  0.83945852  0.74850045    -0.62300
O1614       O  0.87142057  0.93273389  0.76129015    -0.70700
O1615       O  0.89838892  0.90293132  0.75326388    -0.70300
O1616       O  0.81093052  0.81655602  0.73972421    -0.61500
O1617       O  0.85845729  0.87870010  0.71571859    -0.74000
O1618       O  0.84984518  0.84515722  0.77766001    -0.72800
Cu1619     Cu  0.82279206  0.88795150  0.75495336     1.04600
Cu1620     Cu  0.85520124  0.85982592  0.74620351     1.04300
C1621       C  0.83412618  0.85507289  0.79089906     0.93500
C1622       C  0.84498244  0.89818330  0.71122232     0.92600
C1623       C  0.78051777  0.81255671  0.74308189     0.84800
C1624       C  0.90002007  0.93126764  0.75949857     0.91000
O1625       O  0.80480846  0.82016540  0.93400558    -0.72700
O1626       O  0.88694265  0.91119859  0.92044488    -0.73700
O1627       O  0.82972018  0.86114216  0.89601250    -0.62300
O1628       O  0.86719302  0.86880560  0.95721063    -0.70700
O1629       O  0.89456535  0.84071396  0.94626015    -0.70300
O1630       O  0.86039993  0.83487779  0.88861337    -0.61500
O1631       O  0.91965474  0.88807697  0.91096455    -0.74000
O1632       O  0.83033676  0.78987843  0.92407907    -0.72800
Cu1633     Cu  0.84605572  0.86603345  0.92736887     1.04600
Cu1634     Cu  0.87718056  0.83727588  0.91723476     1.04300
C1635       C  0.80265324  0.79057285  0.93055293     0.93500
C1636       C  0.91608211  0.91538824  0.91372344     0.92600
C1637       C  0.84108207  0.84712990  0.88245318     0.84800
C1638       C  0.88833721  0.85684484  0.96079339     0.91000
O1639       O  0.92392460  0.84102952  0.05705857    -0.72700
O1640       O  0.94789726  0.83640833  0.11609249    -0.73700
O1641       O  0.93874229  0.88633512  0.09226092    -0.62300
O1642       O  0.93867757  0.79295890  0.08095494    -0.70700
O1643       O  0.99553764  0.82573291  0.07332727    -0.70300
O1644       O  0.99569352  0.91387366  0.08465050    -0.61500
O1645       O  0.00546898  0.86637253  0.11038201    -0.74000
O1646       O  0.98036483  0.87184334  0.04800344    -0.72800
Cu1647     Cu  0.93530114  0.83797178  0.08674948     1.04600
Cu1648     Cu  0.99619153  0.87033942  0.07867667     1.04300
C1649       C  0.94748334  0.85847289  0.04331155     0.93500
C1650       C  0.97919199  0.85045403  0.12314988     0.92600
C1651       C  0.96845302  0.91515491  0.09020115     0.84800
C1652       C  0.96862592  0.79555633  0.07647011     0.91000
O1653       O  0.59041018  0.63809294  0.89009063    -0.72700
O1654       O  0.56590850  0.63106428  0.95015852    -0.73700
O1655       O  0.62947171  0.67863175  0.92632515    -0.62300
O1656       O  0.53233522  0.58822245  0.91415539    -0.70700
O1657       O  0.56021512  0.55863397  0.92025858    -0.70300
O1658       O  0.65118425  0.64310312  0.93141648    -0.61500
O1659       O  0.59014919  0.59825240  0.95738947    -0.74000
O1660       O  0.61560296  0.60522766  0.89389372    -0.72800
Cu1661     Cu  0.57889985  0.63545589  0.92012010     1.04600
Cu1662     Cu  0.60533604  0.60041164  0.92604976     1.04300
C1663       C  0.60467536  0.62176679  0.88202175     0.93500
C1664       C  0.57175739  0.61242690  0.96312311     0.92600
C1665       C  0.65606488  0.67417670  0.93006758     0.84800
C1666       C  0.53228062  0.55873597  0.91506250     0.91000
O1667       O  0.97043651  0.64822048  0.07722036    -0.72700
O1668       O  0.97063004  0.56032523  0.08835358    -0.73700
O1669       O  0.96109666  0.60658244  0.11446813    -0.62300
O1670       O  0.98647444  0.60279263  0.05175447    -0.70700
O1671       O  0.54282011  0.63495978  0.06086838    -0.70300
O1672       O  0.51852138  0.63741540  0.12027806    -0.61500
O1673       O  0.52792534  0.58869625  0.09575852    -0.74000
O1674       O  0.52684716  0.68151507  0.08524455    -0.72800
Cu1675     Cu  0.97019943  0.60367640  0.08254242     1.04600
Cu1676     Cu  0.53102628  0.63690918  0.09070208     1.04300
C1677       C  0.49706592  0.67875082  0.08006485     0.93500
C1678       C  0.49819925  0.55981943  0.09393093     0.92600
C1679       C  0.98730767  0.62206740  0.12734536     0.84800
C1680       C  0.51973230  0.61733052  0.04696372     0.91000
C1681       C  0.51024609  0.60516425  0.00802210    -0.12000
C1682       C  0.53229877  0.61315612  0.02568823     0.05000
C1683       C  0.56645885  0.61713402  0.02265830    -0.07300
C1684       C  0.57772276  0.61379990  0.00238090    -0.08100
C1685       C  0.55649962  0.60812587  0.98467483    -0.02600
C1686       C  0.52219756  0.60328072  0.98767045     0.04200
N1687       N  0.49891156  0.59624939  0.97016480     0.66700
H1688       H  0.98400566  0.60194538  0.00988828     0.15600
H1689       H  0.60408832  0.61804275  0.00033581     0.15300
N1690       N  0.59095696  0.62595174  0.03972547     0.74400
O1691       O  0.97561580  0.56555799  0.96600887    -0.39000
O1692       O  0.49488249  0.62085747  0.96281421    -0.39000
O1693       O  0.60042439  0.60414224  0.04509035    -0.39700
O1694       O  0.61062322  0.65805277  0.04441809    -0.39800
C1695       C  0.00745628  0.77074332  0.08448923    -0.12000
C1696       C  0.97476902  0.76492437  0.07661516     0.05000
C1697       C  0.95038252  0.73103255  0.06918086    -0.07300
C1698       C  0.95901246  0.70404342  0.06969404    -0.08100
C1699       C  0.99160955  0.70968093  0.07788819    -0.02600
C1700       C  0.51571445  0.74383555  0.08538391     0.04200
N1701       N  0.54862094  0.75147852  0.09457814     0.66700
H1702       H  0.52625613  0.79650940  0.09060607     0.15600
H1703       H  0.93970010  0.67835275  0.06382106     0.15300
N1704       N  0.91721895  0.72364156  0.06050408     0.74400
O1705       O  0.57626565  0.76653082  0.08344532    -0.39000
O1706       O  0.55132112  0.75162223  0.11450226    -0.39000
O1707       O  0.91384187  0.72372988  0.04063985    -0.39700
O1708       O  0.88995333  0.70875527  0.07197021    -0.39800
C1709       C  0.00784180  0.98034627  0.09225258    -0.12000
C1710       C  0.97320262  0.95109273  0.09352320     0.05000
C1711       C  0.94517002  0.95770334  0.09673560    -0.07300
C1712       C  0.95959593  0.49699908  0.10469288    -0.08100
C1713       C  0.99320260  0.52405105  0.09802577    -0.02600
C1714       C  0.51867110  0.51527119  0.09175616     0.04200
N1715       N  0.55270342  0.54109238  0.08425332     0.66700
H1716       H  0.52991942  0.97641025  0.09051748     0.15600
H1717       H  0.94003620  0.50354307  0.10991046     0.15300
N1718       N  0.90964942  0.92965916  0.09933555     0.74400
O1719       O  0.57811568  0.55458149  0.09716262    -0.39000
O1720       O  0.55915982  0.54190866  0.06471030    -0.39000
O1721       O  0.89704255  0.92143321  0.11780496    -0.39700
O1722       O  0.88878677  0.92062582  0.08379446    -0.39800
C1723       C  0.72113216  0.69769292  0.92537734    -0.12000
C1724       C  0.69361911  0.70385371  0.93182244     0.05000
C1725       C  0.70320630  0.73722414  0.94021861    -0.07300
C1726       C  0.73891719  0.76386925  0.94075486    -0.08100
C1727       C  0.76639890  0.75856273  0.93305524    -0.02600
C1728       C  0.75701160  0.72435002  0.92604140     0.04200
N1729       N  0.78323336  0.71594956  0.91950958     0.66700
H1730       H  0.71479284  0.67204125  0.91942711     0.15600
H1731       H  0.74489463  0.78925757  0.94697594     0.15300
N1732       N  0.67737233  0.74434075  0.94909753     0.74400
O1733       O  0.79487026  0.70271491  0.93281995    -0.39000
O1734       O  0.78788717  0.71337573  0.89999587    -0.39000
O1735       O  0.67245476  0.74165046  0.96888911    -0.39700
O1736       O  0.66698178  0.76183825  0.93843548    -0.39800
C1737       C  0.93718283  0.97990603  0.91609566    -0.12000
C1738       C  0.94447374  0.95294914  0.91007659     0.05000
C1739       C  0.97802660  0.96330512  0.90153425    -0.07300
C1740       C  0.50667284  0.49434238  0.90862954    -0.08100
C1741       C  0.50094176  0.52334202  0.91064429    -0.02600
C1742       C  0.96568575  0.51647224  0.91002741     0.04200
N1743       N  0.95791304  0.54454314  0.90979979     0.66700
H1744       H  0.91170305  0.97336246  0.92244834     0.15600
H1745       H  0.53317651  0.49853882  0.90798880     0.15300
N1746       N  0.48666679  0.93764911  0.89417865     0.74400
O1747       O  0.95512907  0.55660008  0.89217876    -0.39000
O1748       O  0.94456875  0.55008581  0.92604510    -0.39000
O1749       O  0.48674180  0.93250097  0.87449900    -0.39700
O1750       O  0.50284604  0.92770370  0.90640555    -0.39800
C1751       C  0.89108247  0.86606730  0.99994031    -0.12000
C1752       C  0.90611336  0.86110934  0.98164631     0.05000
C1753       C  0.93745274  0.85895923  0.98373905    -0.07300
C1754       C  0.95181701  0.86018885  0.00383684    -0.08100
C1755       C  0.93532537  0.86280333  0.02213811    -0.02600
C1756       C  0.90509167  0.86659268  0.02000127     0.04200
N1757       N  0.88846977  0.87167567  0.03806820     0.66700
H1758       H  0.86769556  0.86840743  0.99879541     0.15600
H1759       H  0.97496176  0.85745478  0.00514126     0.15300
N1760       N  0.95500671  0.85500537  0.96572129     0.74400
O1761       O  0.89579223  0.90261836  0.04280076    -0.39000
O1762       O  0.86061324  0.84586248  0.04532025    -0.39000
O1763       O  0.98274679  0.88149607  0.95892885    -0.39700
O1764       O  0.94860951  0.82449201  0.96054174    -0.39800
C1765       C  0.81127245  0.85667144  0.82695220    -0.12000
C1766       C  0.83235356  0.84793442  0.81409583     0.05000
C1767       C  0.85333827  0.83616971  0.82407644    -0.07300
C1768       C  0.85402981  0.83479572  0.84616624    -0.08100
C1769       C  0.83477107  0.84565355  0.85913175    -0.02600
C1770       C  0.81257837  0.85600820  0.84918974     0.04200
N1771       N  0.79185444  0.86676794  0.86117296     0.66700
H1772       H  0.79449917  0.86536605  0.81979311     0.15600
H1773       H  0.87126220  0.82645806  0.85307368     0.12900
N1774       N  0.87595001  0.82757548  0.81230672     0.74400
O1775       O  0.80361813  0.89925257  0.86432967    -0.39000
O1776       O  0.75925605  0.84551164  0.86342586    -0.39000
O1777       O  0.90819159  0.85046484  0.81048196    -0.39700
O1778       O  0.86636573  0.79553515  0.80914660    -0.39800
C1779       C  0.85924384  0.92241553  0.65227223    -0.12000
C1780       C  0.85505290  0.95243367  0.65174750     0.05000
C1781       C  0.85126152  0.96614223  0.67108460    -0.07300
C1782       C  0.84883762  0.94828865  0.69010874    -0.08100
C1783       C  0.85084807  0.91699618  0.69051460    -0.02600
C1784       C  0.85758046  0.90496520  0.67132838     0.04200
N1785       N  0.86110241  0.87421596  0.67060754     0.66700
H1786       H  0.86282831  0.91172668  0.63765232     0.15600
H1787       H  0.84489279  0.95886441  0.70465967     0.15300
N1788       N  0.84803466  0.99703921  0.67171840     0.74400
O1789       O  0.83432344  0.84466677  0.66664639    -0.39000
O1790       O  0.89144506  0.87780493  0.66864469    -0.39000
O1791       O  0.81796855  0.99385447  0.67432079    -0.39700
O1792       O  0.87523332  0.02659356  0.67498524    -0.39800
C1793       C  0.58072048  0.61988604  0.82407194    -0.12000
C1794       C  0.61256078  0.62863681  0.81404668     0.05000
C1795       C  0.64220345  0.63553847  0.82662855    -0.07300
C1796       C  0.63905450  0.63183833  0.84874081    -0.08100
C1797       C  0.60690951  0.62208292  0.85866955    -0.02600
C1798       C  0.57764321  0.61656437  0.84615234     0.04200
N1799       N  0.54395677  0.60572502  0.85552454     0.66700
H1800       H  0.55762927  0.61362816  0.81472214     0.15600
H1801       H  0.66190979  0.63747987  0.85815140     0.15300
N1802       N  0.67604702  0.64744731  0.81723603     0.74400
O1803       O  0.53468088  0.62840686  0.85877018    -0.39000
O1804       O  0.52082824  0.57340016  0.85555591    -0.39000
O1805       O  0.69797698  0.68011856  0.81681547    -0.39700
O1806       O  0.68687260  0.62584788  0.81454610    -0.39800
C1807       C  0.98215030  0.51998135  0.76232311    -0.12000
C1808       C  0.51080249  0.51393747  0.76292929     0.05000
C1809       C  0.49950729  0.98054665  0.76330632    -0.07300
C1810       C  0.96424087  0.95376852  0.76399499    -0.08100
C1811       C  0.93632191  0.96133038  0.76375089    -0.02600
C1812       C  0.94699171  0.49235947  0.76169756     0.04200
N1813       N  0.91956097  0.50087814  0.75967245     0.66700
H1814       H  0.48645805  0.54670745  0.76127854     0.15600
H1815       H  0.95874232  0.92680164  0.76359042     0.15300
N1816       N  0.52592887  0.97064799  0.76135104     0.74400
O1817       O  0.90822611  0.50842863  0.77610425    -0.39000
O1818       O  0.91371908  0.50980928  0.74176826    -0.39000
O1819       O  0.53532556  0.96074244  0.77765410    -0.39700
O1820       O  0.53216551  0.96258806  0.74329698    -0.39800
C1821       C  0.68786844  0.73024154  0.74081272    -0.12000
C1822       C  0.69579654  0.70253421  0.74216859     0.05000
C1823       C  0.73156130  0.71192130  0.74326844    -0.07300
C1824       C  0.75796678  0.74765082  0.74295128    -0.08100
C1825       C  0.75011184  0.77536268  0.74195511    -0.02600
C1826       C  0.71433574  0.76609805  0.74090029     0.04200
N1827       N  0.70409879  0.79239277  0.73982988     0.66700
H1828       H  0.66077395  0.72427263  0.74011760     0.15600
H1829       H  0.78500838  0.75354630  0.74408200     0.15300
N1830       N  0.74191279  0.68580726  0.74498966     0.74400
O1831       O  0.69754466  0.80083768  0.72197605    -0.39000
O1832       O  0.69271501  0.79968817  0.75634038    -0.39000
O1833       O  0.75342337  0.67795370  0.72875858    -0.39700
O1834       O  0.74855179  0.67824664  0.76308655    -0.39800
C1835       C  0.51337147  0.53452649  0.58375382    -0.12000
C1836       C  0.51735168  0.50652241  0.57672613     0.05000
C1837       C  0.97968149  0.96876195  0.56950572    -0.07300
C1838       C  0.94624104  0.96530869  0.57157953    -0.08100
C1839       C  0.94246444  0.99338186  0.57904929    -0.02600
C1840       C  0.97953457  0.53004739  0.58606823     0.04200
N1841       N  0.97749480  0.55936031  0.59440667     0.66700
H1842       H  0.53613802  0.55882091  0.58877453     0.15600
H1843       H  0.92323496  0.94033333  0.56775972     0.15300
N1844       N  0.48185151  0.93876937  0.56242732     0.74400
O1845       O  0.97806362  0.56348000  0.61423452    -0.39000
O1846       O  0.98429644  0.58508792  0.58240243    -0.39000
O1847       O  0.47363464  0.91306199  0.57475443    -0.39700
O1848       O  0.98325453  0.93506231  0.54220093    -0.39800
C1849       C  0.73004795  0.52148324  0.59375034    -0.12000
C1850       C  0.69634761  0.49298699  0.59790713     0.05000
C1851       C  0.69034990  0.96035645  0.58846246    -0.07300
C1852       C  0.71989824  0.95604279  0.59074337    -0.08100
C1853       C  0.75121917  0.98257822  0.59978894    -0.02600
C1854       C  0.75987480  0.51752356  0.59386861     0.04200
N1855       N  0.79277691  0.54710702  0.58752811     0.66700
H1856       H  0.73335195  0.54693958  0.58965315     0.15600
H1857       H  0.71875866  0.93253416  0.58444900     0.15300
N1858       N  0.66024916  0.93339073  0.57759065     0.74400
O1859       O  0.80084256  0.55147798  0.56811292    -0.39000
O1860       O  0.80895332  0.57259801  0.60016967    -0.39000
O1861       O  0.66049106  0.93271114  0.55758930    -0.39700
O1862       O  0.63882022  0.90589497  0.58755759    -0.39800
C1863       C  0.59633931  0.57726926  0.67252282    -0.12000
C1864       C  0.60007840  0.56126301  0.69075620     0.05000
C1865       C  0.60124971  0.52947677  0.68840783    -0.07300
C1866       C  0.60034850  0.51553664  0.66816856    -0.08100
C1867       C  0.59882408  0.53283265  0.64992708    -0.02600
C1868       C  0.59594509  0.56362635  0.65231665     0.04200
N1869       N  0.59225994  0.58142131  0.63434468     0.66700
H1870       H  0.59478010  0.60107511  0.67385451     0.15600
H1871       H  0.60227111  0.49194349  0.66673680     0.15300
N1872       N  0.60267420  0.51038773  0.70638713     0.74400
O1873       O  0.56170796  0.57410541  0.62861581    -0.39000
O1874       O  0.61845981  0.61004120  0.62826943    -0.39000
O1875       O  0.57498772  0.48266752  0.71191369    -0.39700
O1876       O  0.63220285  0.51508349  0.71247082    -0.39800
C1877       C  0.85872584  0.53586511  0.49730809    -0.12000
C1878       C  0.84074513  0.99627445  0.48102508     0.05000
C1879       C  0.82751611  0.96400825  0.49190421    -0.07300
C1880       C  0.82573917  0.96340410  0.51410815    -0.08100
C1881       C  0.83675466  0.99445878  0.52620963    -0.02600
C1882       C  0.85899801  0.53576532  0.51955460     0.04200
N1883       N  0.87984993  0.56823381  0.53057611     0.66700
H1884       H  0.87481522  0.56079149  0.48940235     0.15600
H1885       H  0.81666904  0.93830280  0.52184388     0.15300
N1886       N  0.81699542  0.93169455  0.48090230     0.74400
O1887       O  0.91255642  0.58007532  0.53267879    -0.39000
O1888       O  0.83343894  0.06791909  0.52747681    -0.39000
O1889       O  0.83743193  0.91912044  0.48063350    -0.39700
O1890       O  0.78488043  0.91200057  0.47624406    -0.39800
C1891       C  0.91585244  0.53660484  0.32397558    -0.12000
C1892       C  0.94064584  0.57296826  0.32241416     0.05000
C1893       C  0.94703954  0.59419860  0.34040422    -0.07300
C1894       C  0.92758074  0.57932121  0.35901129    -0.08100
C1895       C  0.90137561  0.54314444  0.36042306    -0.02600
C1896       C  0.89658399  0.52154943  0.34271188     0.04200
N1897       N  0.86556573  0.98728218  0.33825771     0.66700
H1898       H  0.91046515  0.51992396  0.31023702     0.15600
H1899       H  0.93293479  0.59667843  0.37238713     0.15300
N1900       N  0.97128390  0.63131854  0.33974909     0.74400
O1901       O  0.83629163  0.98506430  0.33412637    -0.39000
O1902       O  0.86832828  0.95995452  0.33718039    -0.39000
O1903       O  0.95947009  0.65221169  0.33756550    -0.39700
O1904       O  0.00204304  0.64298285  0.34696896    -0.39800
C1905       C  0.51172840  0.64827686  0.16245384    -0.12000
C1906       C  0.98350457  0.62213956  0.15076601     0.05000
C1907       C  0.95549443  0.59439536  0.16188251    -0.07300
C1908       C  0.95640397  0.59368104  0.18406323    -0.08100
C1909       C  0.98514185  0.61977308  0.19579401    -0.02600
C1910       C  0.01352454  0.64708516  0.18467795     0.04200
N1911       N  0.54351170  0.67346076  0.19540919     0.66700
H1912       H  0.53378836  0.66972242  0.15435780     0.15600
H1913       H  0.93460824  0.57191328  0.19213625     0.15300
N1914       N  0.92707873  0.56545061  0.15106512     0.74400
O1915       O  0.57020986  0.66971618  0.19713248    -0.39000
O1916       O  0.04802554  0.70396491  0.19762371    -0.39000
O1917       O  0.92822113  0.53743581  0.14838661    -0.39700
O1918       O  0.89782807  0.56444586  0.14950359    -0.39800
C1919       C  0.60981291  0.01966265  0.48816326    -0.12000
C1920       C  0.62215488  0.99925817  0.47841200     0.05000
C1921       C  0.63041965  0.97754687  0.49102965    -0.07300
C1922       C  0.62469520  0.97540897  0.51296420    -0.08100
C1923       C  0.61118142  0.99492904  0.52256268    -0.02600
C1924       C  0.60421070  0.01764750  0.51003622     0.04200
N1925       N  0.61421311  0.55388735  0.52065223     0.66700
H1926       H  0.60234828  0.03545225  0.47867119     0.15600
H1927       H  0.63155915  0.95922043  0.52250497     0.15300
N1928       N  0.64535196  0.95806018  0.48187240     0.74400
O1929       O  0.60951930  0.07010440  0.52244412    -0.39000
O1930       O  0.58542065  0.55383350  0.52231362    -0.39000
O1931       O  0.67841934  0.97114946  0.48226274    -0.39700
O1932       O  0.62596507  0.92530427  0.47894191    -0.39800
C1933       C  0.70715733  0.96751195  0.39812341    -0.12000
C1934       C  0.69885750  0.98900490  0.41034344     0.05000
C1935       C  0.71753542  0.51532973  0.39629018    -0.07300
C1936       C  0.75251182  0.52295133  0.39930130    -0.08100
C1937       C  0.76023498  0.50287983  0.41321706    -0.02600
C1938       C  0.74221098  0.97473832  0.39642177     0.04200
N1939       N  0.74924331  0.95286232  0.38281922     0.66700
H1940       H  0.68659812  0.94568415  0.38938785     0.15600
H1941       H  0.77355050  0.54416974  0.39043458     0.15300
N1942       N  0.71134831  0.53641015  0.38150025     0.74400
O1943       O  0.74378579  0.92337566  0.38955443    -0.39000
O1944       O  0.75175230  0.95860348  0.36311121    -0.39000
O1945       O  0.71836936  0.56706440  0.38681536    -0.39700
O1946       O  0.70834201  0.52849268  0.36208363    -0.39800
C1947       C  0.50927991  0.52590825  0.41598658    -0.12000
C1948       C  0.51229077  0.99014513  0.42413313     0.05000
C1949       C  0.98173656  0.96892500  0.43627782    -0.07300
C1950       C  0.95528037  0.97820961  0.43788645    -0.08100
C1951       C  0.95198555  0.51252797  0.42961870    -0.02600
C1952       C  0.98322821  0.53517743  0.41865426     0.04200
N1953       N  0.98810198  0.56666613  0.40869217     0.66700
H1954       H  0.53240578  0.54347921  0.40688516     0.15600
H1955       H  0.93164002  0.96124542  0.44677604     0.15300
N1956       N  0.97684105  0.93806553  0.44702561     0.74400
O1957       O  0.50659965  0.59618352  0.41799288    -0.39000
O1958       O  0.98203971  0.56628756  0.38910788    -0.39000
O1959       O  0.98318297  0.93977669  0.46663715    -0.39700
O1960       O  0.95739347  0.90826943  0.43867303    -0.39800
C1961       C  0.96716024  0.74992464  0.27518813    -0.12000
C1962       C  0.99704947  0.77603330  0.26419408     0.05000
C1963       C  0.51813959  0.76524700  0.25318239    -0.07300
C1964       C  0.00992510  0.73004363  0.25374227    -0.08100
C1965       C  0.97966172  0.70400323  0.26435285    -0.02600
C1966       C  0.95818993  0.71429468  0.27515919     0.04200
N1967       N  0.92778266  0.68931299  0.28668713     0.66700
H1968       H  0.95014955  0.75702400  0.28365948     0.15600
H1969       H  0.52609873  0.72220777  0.24495077     0.15300
N1970       N  0.54731928  0.78954124  0.24049456     0.74400
O1971       O  0.93064361  0.68516118  0.30623593    -0.39000
O1972       O  0.89756177  0.67901170  0.27897588    -0.39000
O1973       O  0.57830099  0.80039117  0.24708940    -0.39700
O1974       O  0.54244051  0.79246631  0.22105283    -0.39800
C1975       C  0.00962512  0.02112897  0.23836427    -0.12000
C1976       C  0.97854377  0.51607646  0.25154073     0.05000
C1977       C  0.45216483  0.48275652  0.24325694    -0.07300
C1978       C  0.45988004  0.45539005  0.24101815    -0.08100
C1979       C  0.99054768  0.95897366  0.24298119    -0.02600
C1980       C  0.01734413  0.99360761  0.23820063     0.04200
N1981       N  0.05268941  0.00180000  0.23382775     0.66700
H1982       H  0.03088415  0.04762305  0.23536879     0.15600
H1983       H  0.43932214  0.43008366  0.23536184     0.15300
N1984       N  0.41781738  0.47614595  0.23750585     0.74400
O1985       O  0.06242250  0.00398237  0.21477992    -0.39000
O1986       O  0.07578459  0.01598419  0.24811613    -0.39000
O1987       O  0.41100568  0.47731870  0.21818258    -0.39700
O1988       O  0.39263943  0.45985491  0.25035920    -0.39800
C1989       C  0.53068941  0.91404934  0.35415073    -0.12000
C1990       C  0.56197342  0.94731844  0.35442440     0.05000
C1991       C  0.57566008  0.96435103  0.33489737    -0.07300
C1992       C  0.55991305  0.94678708  0.31591255    -0.08100
C1993       C  0.53001688  0.91262355  0.31568610    -0.02600
C1994       C  0.51453750  0.89683010  0.33517311     0.04200
N1995       N  0.98394581  0.86268457  0.33600733     0.66700
H1996       H  0.51875384  0.90059819  0.36902581     0.15600
H1997       H  0.57172978  0.96005544  0.30095287     0.15300
N1998       N  0.60612850  0.99871525  0.33388796     0.74400
O1999       O  0.98753686  0.83590737  0.33780821    -0.39000
O2000       O  0.95464434  0.86007755  0.34060159    -0.39000
O2001       O  0.63527281  0.00178595  0.32836940    -0.39700
O2002       O  0.60199891  0.02523613  0.33269502    -0.39800
C2003       C  0.95208127  0.83712739  0.15890795    -0.12000
C2004       C  0.98281781  0.84851546  0.14649074     0.05000
C2005       C  0.51471230  0.85843050  0.15692075    -0.07300
C2006       C  0.51564591  0.85806355  0.17912804    -0.08100
C2007       C  0.98530066  0.84839938  0.19145848    -0.02600
C2008       C  0.95301210  0.83697969  0.18101497     0.04200
N2009       N  0.92103668  0.82657253  0.19239102     0.66700
H2010       H  0.92692738  0.82921836  0.15155077     0.15600
H2011       H  0.54076343  0.86640886  0.18666088     0.15300
N2012       N  0.54662231  0.86902678  0.14542484     0.74400
O2013       O  0.91099916  0.84877676  0.19518922    -0.39000
O2014       O  0.89897378  0.79412079  0.19437627    -0.39000
O2015       O  0.56936651  0.90141609  0.14433797    -0.39700
O2016       O  0.55593162  0.84648264  0.14174552    -0.39800
loop_ 
_geom_bond_atom_site_label_1 
_geom_bond_atom_site_label_2 
_geom_bond_distance 
_geom_bond_site_symmetry_2 
_ccdc_geom_bond_type 
O1           Cu9   1.967       .  S
O1           C11   1.272       .  A
O2           Cu9   1.957       .  S
O2         C1020   1.270   1_455  A
O3           Cu9   2.055       .  S
O3           C13   1.285   1_455  A
O4           Cu9   2.056       .  S
O4           C14   1.285   1_455  A
O5          Cu10   1.980       .  S
O5         C1022   1.272       .  A
O6          Cu10   1.954       .  S
O6         C1021   1.269       .  A
O7          Cu10   2.067       .  S
O7           C12   1.287       .  A
O8          Cu10   2.076       .  S
O8         C1019   1.288       .  A
Cu9       Cu1018   2.360   1_455  S
Cu10      Cu1017   2.360       .  S
C11        O1016   1.287   1_455  A
C11         C481   1.502       .  S
C12        O1010   1.270       .  A
C12         C495   1.492       .  S
C13        O1014   1.269       .  A
C13        C1475   1.480       .  S
C14        O1013   1.272       .  A
C14        C1458   1.491       .  S
O15         Cu23   1.963       .  S
O15          C25   1.268       .  A
O16         Cu23   1.946       .  S
O16          C26   1.265       .  A
O17         Cu23   2.092       .  S
O17          C27   1.290       .  A
O18         Cu23   2.085       .  S
O18          C28   1.291       .  A
O19         Cu24   1.956       .  S
O19          C28   1.266       .  A
O20         Cu24   1.949       .  S
O20          C27   1.267       .  A
O21         Cu24   2.079       .  S
O21          C26   1.291       .  A
O22         Cu24   2.079       .  S
O22          C25   1.288       .  A
Cu23        Cu24   2.365       .  S
C25         C478   1.482       .  S
C26         C408   1.488       .  S
C27         C436   1.498       .  S
C28         C422   1.492       .  S
O29         Cu37   1.955       .  S
O29          C39   1.270       .  A
O30         Cu37   1.958       .  S
O30          C40   1.270       .  A
O31         Cu37   2.064       .  S
O31          C41   1.286       .  A
O32         Cu37   2.062       .  S
O32          C42   1.286       .  A
O33         Cu38   1.958       .  S
O33          C42   1.270       .  A
O34         Cu38   1.963       .  S
O34          C41   1.270       .  A
O35         Cu38   2.070       .  S
O35          C40   1.286       .  A
O36         Cu38   2.063       .  S
O36          C39   1.286       .  A
Cu37        Cu38   2.367       .  S
C39         C397   1.490       .  S
C40         C380   1.484       .  S
C41         C453   1.480       .  S
C42         C464   1.486       .  S
O43         Cu51   1.978       .  S
O43         C557   1.270       .  A
O44         Cu51   1.953       .  S
O44         C558   1.268       .  A
O45         Cu51   2.072       .  S
O45         C559   1.288       .  A
O46        Cu555   2.070       .  S
O46          C56   1.288   1_565  A
O47         Cu52   1.967       .  S
O47          C56   1.270       .  A
O48         Cu52   1.967       .  S
O48          C55   1.271       .  A
O49         Cu52   2.063       .  S
O49          C54   1.286       .  A
O50         Cu52   2.063       .  S
O50          C53   1.288       .  A
Cu51        O550   2.097       .  S
Cu51       Cu556   2.361       .  S
Cu52       Cu555   2.363   1_545  S
C53         O547   1.270   1_545  A
C53         C425   1.493       .  S
C54         O548   1.269   1_545  A
C54         C439   1.480       .  S
C55         O549   1.287   1_545  A
C55         C870   1.496   1_545  S
C56         C383   1.491       .  S
O57         Cu65   1.946       .  S
O57         C571   1.267       .  A
O58         Cu65   1.985       .  S
O58         C572   1.269       .  A
O59        Cu569   2.080       .  S
O59          C69   1.289   1_565  A
O60         Cu65   2.070       .  S
O60         C574   1.289       .  A
O61         Cu66   1.940       .  S
O61          C70   1.265   1_545  A
O62         Cu66   1.959       .  S
O62          C69   1.267       .  A
O63         Cu66   2.068       .  S
O63          C68   1.289   1_545  A
O64         Cu66   2.047       .  S
O64          C67   1.286       .  A
Cu65        O563   2.083       .  S
Cu65       Cu570   2.367       .  S
Cu66       Cu569   2.371   1_545  S
C67         O561   1.266   1_545  A
C67         C324   1.476       .  S
C68         O562   1.268       .  A
C68         C338   1.490       .  S
C69         C355   1.486       .  S
C70         O564   1.286       .  A
C70         C915   1.468       .  S
O71         Cu79   1.968       .  S
O71          C81   1.270       .  A
O72         Cu79   1.952       .  S
O72          C82   1.268       .  A
O73         Cu79   2.055       .  S
O73          C83   1.286       .  A
O74         Cu79   2.064       .  S
O74          C84   1.288       .  A
O75         Cu80   1.982       .  S
O75          C84   1.270       .  A
O76         Cu80   1.958       .  S
O76          C83   1.268       .  A
O77         Cu80   2.079       .  S
O77          C82   1.289       .  A
O78         Cu80   2.077       .  S
O78          C81   1.289       .  A
Cu79        Cu80   2.364       .  S
C81         C310   1.502       .  S
C82         C296   1.492       .  S
C83         C282   1.476       .  S
C84         C352   1.499       .  S
O85         Cu93   1.965       .  S
O85          C95   1.270       .  A
O86         Cu93   1.948       .  S
O86          C96   1.265       .  A
O87         Cu93   2.090       .  S
O87          C97   1.290       .  A
O88         Cu93   2.100       .  S
O88          C98   1.291       .  A
O89         Cu94   1.944       .  S
O89          C98   1.267       .  A
O90         Cu94   1.919       .  S
O90          C97   1.264       .  A
O91         Cu94   2.057       .  S
O91          C96   1.287       .  A
O92         Cu94   2.063       .  S
O92          C95   1.287       .  A
Cu93        Cu94   2.359       .  S
C95         C341   1.490       .  S
C96         C327   1.486       .  S
C97         C369   1.489       .  S
C98         C268   1.502       .  S
O99        Cu107   1.953       .  S
O99         C109   1.269       .  A
O100       Cu107   1.961       .  S
O100        C110   1.268       .  A
O101       Cu107   2.083       .  S
O101        C111   1.289       .  A
O102       Cu107   2.083       .  S
O102        C112   1.289       .  A
O103       Cu108   1.956       .  S
O103        C112   1.269       .  A
O104       Cu108   1.966       .  S
O104        C111   1.270       .  A
O105       Cu108   2.070       .  S
O105        C110   1.287       .  A
O106       Cu108   2.066       .  S
O106        C109   1.287       .  A
Cu107      Cu108   2.364       .  S
C109        C254   1.491       .  S
C110        C271   1.476       .  S
C111        C313   1.495       .  S
C112        C299   1.497       .  S
O113       Cu121   1.981       .  S
O113        C123   1.271       .  A
O114       Cu121   1.956       .  S
O114        C124   1.269       .  A
O115       Cu121   2.079       .  S
O115        C125   1.288       .  A
O116       Cu121   2.083       .  S
O116        C126   1.290       .  A
O117       Cu122   1.963       .  S
O117        C126   1.268       .  A
O118       Cu122   1.933       .  S
O118        C125   1.267       .  A
O119       Cu122   2.076       .  S
O119        C124   1.288       .  A
O120       Cu122   2.082       .  S
O120        C123   1.290       .  A
Cu121      Cu122   2.359       .  S
C123        C215   1.505       .  S
C124        C226   1.495       .  S
C125        C257   1.492       .  S
C126        C240   1.495       .  S
O127       Cu135   1.970       .  S
O127        C137   1.269       .  A
O128       Cu135   1.943       .  S
O128        C138   1.268       .  A
O129       Cu135   2.084       .  S
O129        C139   1.288       .  A
O130       Cu135   2.095       .  S
O130        C140   1.291       .  A
O131       Cu136   1.952       .  S
O131        C140   1.268       .  A
O132       Cu136   1.925       .  S
O132        C139   1.266       .  A
O133       Cu136   2.074       .  S
O133        C138   1.288       .  A
O134       Cu136   2.076       .  S
O134        C137   1.289       .  A
Cu135      Cu136   2.359       .  S
C137        C243   1.491       .  S
C138        C492   1.493       .  S
C139        C198   1.491       .  S
C140        C184   1.504       .  S
O141       Cu149   1.947       .  S
O141        C151   1.266       .  A
O142       Cu149   1.946       .  S
O142        C152   1.265       .  A
O143       Cu149   2.098       .  S
O143        C153   1.291       .  A
O144       Cu149   2.089       .  S
O144        C154   1.291       .  A
O145       Cu150   1.946       .  S
O145        C154   1.266       .  A
O146       Cu150   1.973       .  S
O146        C153   1.270       .  A
O147       Cu150   2.067       .  S
O147        C152   1.289       .  A
O148       Cu150   2.060       .  S
O148        C151   1.287       .  A
Cu149      Cu150   2.365       .  S
C151        C285   1.476       .  S
C152        C173   1.489       .  S
C153        C212   1.498       .  S
C154        C229   1.489   1_455  S
O155       Cu163   1.971       .  S
O155       C1173   1.271       .  A
O156       Cu163   1.955       .  S
O156       C1174   1.270       .  A
O157       Cu163   2.061       .  S
O157        C167   1.285       .  A
O158       Cu163   2.060       .  S
O158       C1176   1.286       .  A
O159       Cu164   1.963       .  S
O159        C168   1.269       .  A
O160       Cu164   1.951       .  S
O160       C1175   1.270   1_455  A
O161       Cu164   2.070       .  S
O161        C166   1.287   1_455  A
O162       Cu164   2.082       .  S
O162        C165   1.289   1_455  A
Cu163     Cu1172   2.364       .  S
Cu164     Cu1171   2.364   1_455  S
C165       O1163   1.271       .  A
C165       C1195   1.502       .  S
C166       O1164   1.270       .  A
C166       C1209   1.491       .  S
C167       O1168   1.270       .  A
C167        C394   1.489       .  S
C168       O1166   1.286   1_455  A
C168        C170   1.475       .  S
C169        C170   1.392       .  A
C169        C174   1.400   1_554  A
C169       H1184   1.080   1_455  S
C170        C171   1.415       .  A
C171        C172   1.401   1_554  A
C171        N178   1.425       .  S
C172        C173   1.398       .  A
C172        H177   1.080       .  S
C173        C174   1.427       .  A
C174        N175   1.429       .  S
N175        O180   1.262       .  A
N175       O1187   1.261   1_455  A
H176       C1177   1.080       .  S
N178        O181   1.262       .  A
N178        O182   1.262       .  A
O179       N1183   1.261       .  A
C183        C184   1.418       .  A
C183       C1196   1.405       .  A
C183       H1198   1.079       .  S
C184        C185   1.408       .  A
C185        C186   1.407       .  A
C185        N192   1.428       .  S
C186        C187   1.417       .  A
C186        H191   1.079       .  S
C187       C1173   1.503       .  S
C187       C1196   1.408       .  A
C188       C1191   1.405       .  A
C188       C1195   1.408   1_455  A
C188        N189   1.429       .  S
N189        O194   1.262       .  A
N189        O193   1.262       .  A
H190       C1191   1.079       .  S
N192        O195   1.262       .  A
N192        O196   1.262       .  A
C197        C198   1.415       .  A
C197       C1714   1.394       .  A
C197       H1212   1.079       .  S
C198        C199   1.407       .  A
C199        C704   1.404       .  A
C199        N206   1.427       .  S
C200        C201   1.414   1_565  A
C200        C703   1.402       .  A
C200        H205   1.080       .  S
C201       C1174   1.491       .  S
C201       C1210   1.407       .  A
C202       C1709   1.401   1_545  A
C202       C1209   1.407   1_455  A
C202        N203   1.429       .  S
N203        O208   1.261       .  A
N203        O207   1.261       .  A
H204       C1205   1.079       .  S
N206        O209   1.262       .  A
N206        O210   1.262       .  A
C211        C212   1.411       .  A
C211        C216   1.406       .  A
C211        H218   1.080       .  S
C212        C213   1.409       .  A
C213        C214   1.412       .  A
C213        N220   1.428       .  S
C214        C215   1.417       .  A
C214        H219   1.080       .  S
C215        C216   1.411       .  A
C216        N217   1.428       .  S
N217        O222   1.262       .  A
N217        O221   1.262       .  A
N220        O223   1.262       .  A
N220        O224   1.262       .  A
C225        C226   1.417       .  A
C225        C734   1.404       .  A
C225        H232   1.080       .  S
C226        C227   1.406       .  A
C227       C1740   1.401       .  A
C227       N1242   1.428       .  S
C228        C229   1.415   1_465  A
C228       C1739   1.408   1_455  A
C228        H233   1.080   1_565  S
C229       C1238   1.402       .  A
C230        C729   1.401   1_545  A
C230       C1237   1.402       .  A
C230        N231   1.427       .  S
N231        O236   1.261       .  A
N231        O235   1.262       .  A
N234       C1235   1.429       .  S
N234        O237   1.262       .  A
N234        O238   1.261       .  A
C239        C240   1.399   1_554  A
C239        C244   1.407       .  A
C239        H246   1.080       .  S
C240        C241   1.424       .  A
C241        C242   1.404   1_556  A
C241        N248   1.428       .  S
C242        C243   1.395       .  A
C242        H247   1.080       .  S
C243        C244   1.422       .  A
C244        N245   1.429       .  S
N245        O250   1.262       .  A
N245        O249   1.262       .  A
N248        O251   1.261       .  A
N248        O252   1.262       .  A
C253        C254   1.417       .  A
C253        C258   1.403       .  A
C253        H260   1.079       .  S
C254        C255   1.405       .  A
C255        C256   1.397       .  A
C255        N262   1.428       .  S
C256        C257   1.415       .  A
C256        H261   1.080       .  S
C257        C258   1.406       .  A
C258        N259   1.428       .  S
N259        O264   1.262       .  A
N259        O263   1.262       .  A
N262        O265   1.262       .  A
N262        O266   1.262       .  A
C267        C268   1.417       .  A
C267        C272   1.400       .  A
C267        H274   1.079       .  S
C268        C269   1.412       .  A
C269        C270   1.410       .  A
C269        N276   1.427       .  S
C270        C271   1.408       .  A
C270        H275   1.080       .  S
C271        C272   1.402       .  A
C272        N273   1.429       .  S
N273        O278   1.262       .  A
N273        O277   1.261       .  A
N276        O279   1.262       .  A
N276        O280   1.262       .  A
C281        C282   1.396       .  A
C281        C286   1.397       .  A
C281        H288   1.080       .  S
C282        C283   1.418       .  A
C283        C284   1.403       .  A
C283        N290   1.428       .  S
C284        C285   1.397       .  A
C284        H289   1.080       .  S
C285        C286   1.418       .  A
C286        N287   1.430       .  S
N287        O292   1.262       .  A
N287        O291   1.262       .  A
N290        O293   1.262       .  A
N290        O294   1.262       .  A
C295        C300   1.406   1_545  A
C295       C1304   1.417       .  A
C295       H1310   1.080       .  S
C296       C1303   1.417   1_455  A
C296        C801   1.404   1_445  A
C297        C800   1.406       .  A
C297       C1306   1.405   1_455  A
C297        N304   1.427       .  S
C298        C299   1.416       .  A
C298       C1305   1.405       .  A
C298        H303   1.080       .  S
C299        C804   1.406       .  A
C300        C803   1.407       .  A
C300        N301   1.428   1_565  S
N301        O306   1.262       .  A
N301        O305   1.262       .  A
H302       C1303   1.080       .  S
N304        O307   1.262       .  A
N304        O308   1.261       .  A
C309        C310   1.418       .  A
C309        C314   1.408       .  A
C309        H316   1.079       .  S
C310        C311   1.409       .  A
C311        C312   1.404       .  A
C311        N318   1.428       .  S
C312        C313   1.412       .  A
C312        H317   1.080       .  S
C313        C314   1.407       .  A
C314        N315   1.428       .  S
N315        O320   1.262       .  A
N315        O319   1.261       .  A
N318        O321   1.262       .  A
N318        O322   1.262       .  A
C323        C324   1.393       .  A
C323       C1336   1.396   1_455  A
C323        H330   1.080       .  S
C324       C1837   1.419   1_445  A
C325        C326   1.398       .  A
C325       C1836   1.417       .  A
C325       N1340   1.430       .  S
C326        C327   1.400       .  A
C326        H331   1.080       .  S
C327        C832   1.425       .  A
C328       C1331   1.396       .  A
C328        C831   1.425   1_545  A
C328        N329   1.429       .  S
N329        O334   1.262       .  A
N329        O333   1.262       .  A
N332       C1333   1.430       .  S
N332        O335   1.262       .  A
N332       O1344   1.262       .  A
O336       N1340   1.262       .  A
C337        C338   1.396   1_545  A
C337        C342   1.401       .  A
C337        H344   1.080       .  S
C338        C843   1.422       .  A
C339        C340   1.409       .  A
C339        C842   1.428       .  A
C339        N346   1.429       .  S
C340        C341   1.399       .  A
C340        H345   1.080       .  S
C341        C846   1.419       .  A
C342        C845   1.424   1_545  A
C342        N343   1.429       .  S
N343        O348   1.262       .  A
N343        O347   1.262       .  A
N346        O349   1.262       .  A
N346        O350   1.262       .  A
C351        C352   1.401       .  A
C351        C356   1.404       .  A
C351        H358   1.080       .  S
C352        C353   1.426       .  A
C353        C354   1.406       .  A
C353        N360   1.428       .  S
C354        C355   1.395       .  A
C354        H359   1.080   1_545  S
C355        C356   1.419       .  A
C356        N357   1.430       .  S
N357        O362   1.262       .  A
N357        O361   1.262       .  A
N360        O363   1.261   1_545  A
N360        O364   1.262       .  A
C365        C370   1.406       .  A
C365        C870   1.416   1_545  A
C365        H372   1.079       .  S
C366        C559   1.491       .  S
C366        C367   1.406       .  A
C366        C869   1.418       .  A
C367        C368   1.398       .  A
C367        N374   1.429       .  S
C368        C369   1.415       .  A
C368        H373   1.080       .  S
C369        C874   1.403       .  A
C370        C873   1.407   1_545  A
C370        N371   1.428       .  S
N371        O880   1.262       .  A
N371        O375   1.262       .  A
N374        O377   1.262       .  A
N374        O378   1.261       .  A
O376        N875   1.262       .  A
C379        C380   1.410       .  A
C379        C384   1.402       .  A
C379        H386   1.080       .  S
C380        C381   1.405       .  A
C381        C382   1.405       .  A
C381        N388   1.429       .  S
C382        C383   1.415       .  A
C382        H387   1.080       .  S
C383        C384   1.406       .  A
C384        N889   1.427   1_545  S
N385        C888   1.427       .  S
N385        O390   1.262       .  A
N385        O389   1.262       .  A
N388        O391   1.262       .  A
N388        O392   1.262       .  A
C393       C1402   1.413   1_455  A
C393       C1406   1.398       .  A
C393        H400   1.079       .  S
C394        C395   1.407       .  A
C394       C1401   1.413       .  A
C395        C396   1.402       .  A
C395        N402   1.429       .  S
C396        C397   1.415       .  A
C396        H401   1.079       .  S
C397        C398   1.407       .  A
C398       C1401   1.398       .  A
C398       N1407   1.428       .  S
N399       C1406   1.428       .  S
N399       O1412   1.262       .  A
N399        O403   1.262       .  A
N402        O405   1.262       .  A
N402        O406   1.262       .  A
O404       N1407   1.262       .  A
C407        C408   1.397       .  A
C407        C412   1.401       .  A
C407        H414   1.080       .  S
C408        C409   1.425       .  A
C409        C410   1.403       .  A
C409        N416   1.429       .  S
C410        C411   1.395       .  A
C410        H415   1.080       .  S
C411        C574   1.485       .  S
C411        C412   1.423       .  A
C412        N917   1.430       .  S
N413        C916   1.430       .  S
N413        O418   1.262       .  A
N413        O921   1.262       .  A
N416        O419   1.262       .  A
N416        O420   1.262       .  A
O417        N917   1.262       .  A
C421        C422   1.399       .  A
C421        C426   1.404       .  A
C421        H428   1.080       .  S
C422        C927   1.424       .  A
C423        C424   1.402       .  A
C423        C926   1.419   1_545  A
C423        N430   1.430       .  S
C424        C425   1.401       .  A
C424        H429   1.080       .  S
C425        C930   1.423   1_545  A
C426        C929   1.417       .  A
C426        N427   1.426       .  S
N427        O432   1.262       .  A
N427        O431   1.261       .  A
N430        O433   1.262       .  A
N430        O434   1.262       .  A
C435        C940   1.415   1_545  A
C435       C1448   1.397   1_455  A
C435        H442   1.080       .  S
C436        C939   1.417       .  A
C436       C1445   1.409   1_455  A
C437        C438   1.406       .  A
C437       C1444   1.409       .  A
C437        N444   1.427       .  S
C438        C943   1.412       .  A
C438        H443   1.080       .  S
C439        C440   1.403       .  A
C439        C942   1.411   1_545  A
C440       C1443   1.397       .  A
C440        N441   1.429       .  S
N441        O446   1.262       .  A
N441       O1453   1.262       .  A
N444        O447   1.262       .  A
N444        O448   1.262       .  A
O445       N1449   1.262   1_455  A
C449        C450   1.414       .  A
C449        C454   1.405       .  A
C449        H456   1.080       .  S
C450       C1022   1.491       .  S
C450       C1459   1.411       .  A
C451       C1458   1.411   1_455  A
C451       C1460   1.400       .  A
C451        N458   1.429       .  S
C452        C453   1.406       .  A
C452       C1459   1.400       .  A
C452       H1465   1.080       .  S
C453        C454   1.405       .  A
C454        N455   1.428       .  S
N455        O460   1.262       .  A
N455        O459   1.262       .  A
H457       C1460   1.080       .  S
N458        O461   1.262       .  A
N458        O462   1.262       .  A
C463        C468   1.398       .  A
C463        C968   1.416       .  A
C463        H470   1.079       .  S
C464        C967   1.413       .  A
C464       C1473   1.405   1_545  A
C465        C466   1.398       .  A
C465       C1472   1.405   1_565  A
C465        N472   1.428       .  S
C466       C1979   1.415       .  A
C466        H471   1.079       .  S
C467       C1021   1.481       .  S
C467        C468   1.404       .  A
C467       C1978   1.411       .  A
C468        N469   1.429       .  S
N469        O474   1.262       .  A
N469        O473   1.262       .  A
N472        O475   1.262       .  A
N472        O476   1.262       .  A
C477        C478   1.409       .  A
C477        C482   1.408       .  A
C477        H484   1.076       .  S
C478        C479   1.404       .  A
C479        C480   1.403       .  A
C479        N486   1.429       .  S
C480        C481   1.416       .  A
C480        H485   1.076       .  S
C481        C482   1.413       .  A
C482       N1491   1.428   1_455  S
N483       C1490   1.428       .  S
N483        O488   1.262       .  A
N483        O487   1.262       .  A
N486        O489   1.262       .  A
N486        O490   1.262       .  A
C491        C492   1.416       .  A
C491        C496   1.399       .  A
C491        H498   1.079       .  S
C492       C1501   1.407       .  A
C493        C494   1.403       .  A
C493       C1500   1.407   1_455  A
C493        N500   1.428       .  S
C494       C1503   1.415   1_455  A
C494        H499   1.079       .  S
C495        C496   1.407       .  A
C495       C1502   1.415       .  A
C496        N497   1.429       .  S
N497        O502   1.262       .  A
N497        O501   1.262       .  A
N500        O503   1.262       .  A
N500        O504   1.262       .  A
O505       Cu513   1.972       .  S
O505        C515   1.272       .  A
O506       Cu513   1.948       .  S
O506       C1524   1.269   1_455  A
O507       Cu513   2.072       .  S
O507        C517   1.287   1_455  A
O508       Cu513   2.074       .  S
O508        C518   1.288       .  A
O509       Cu514   1.961       .  S
O509       C1526   1.270       .  A
O510       Cu514   1.948       .  S
O510       C1525   1.269       .  A
O511       Cu514   2.056       .  S
O511        C516   1.286       .  A
O512       Cu514   2.068       .  S
O512       C1523   1.286       .  A
Cu513     Cu1522   2.363   1_455  S
Cu514     Cu1521   2.363       .  S
C515       O1520   1.286   1_455  A
C515        C985   1.489       .  S
C516       O1514   1.269       .  A
C516        C999   1.485       .  S
C517       O1518   1.269       .  A
C517       C1979   1.493       .  S
C518       O1517   1.270   1_455  A
C518       C1962   1.494   1_455  S
O519       Cu527   1.964       .  S
O519        C529   1.271       .  A
O520       Cu527   1.945       .  S
O520        C530   1.266       .  A
O521       Cu527   2.092       .  S
O521        C531   1.289       .  A
O522       Cu527   2.076       .  S
O522        C532   1.289       .  A
O523       Cu528   1.958       .  S
O523        C532   1.267   1_545  A
O524       Cu528   1.939       .  S
O524        C531   1.267   1_545  A
O525       Cu528   2.056       .  S
O525        C530   1.286   1_545  A
O526       Cu528   2.078   1_565  S
O526        C529   1.288       .  A
Cu527      Cu528   2.366   1_565  S
C529        C982   1.495       .  S
C530        C912   1.468       .  S
C531        C940   1.496       .  S
C532        C926   1.484       .  S
O533       Cu541   1.949       .  S
O533        C543   1.268       .  A
O534       Cu541   1.965       .  S
O534        C544   1.269       .  A
O535       Cu541   2.080       .  S
O535        C545   1.289       .  A
O536       Cu541   2.076       .  S
O536        C546   1.287       .  A
O537       Cu542   1.947       .  S
O537        C546   1.269       .  A
O538       Cu542   1.958       .  S
O538        C545   1.268       .  A
O539       Cu542   2.083       .  S
O539        C544   1.288       .  A
O540       Cu542   2.078       .  S
O540        C543   1.288       .  A
Cu541      Cu542   2.364       .  S
C543        C901   1.488       .  S
C544        C884   1.487       .  S
C545        C957   1.485       .  S
C546        C968   1.494       .  S
O547       Cu555   1.976       .  S
O548       Cu555   1.961       .  S
O549       Cu555   2.068       .  S
O550        C560   1.291       .  A
O551       Cu556   1.951       .  S
O551        C560   1.268       .  A
O552       Cu556   1.951       .  S
O552        C559   1.268       .  A
O553       Cu556   2.077       .  S
O553        C558   1.288       .  A
O554       Cu556   2.071       .  S
O554        C557   1.287       .  A
C557        C929   1.487       .  S
C558        C943   1.486       .  S
C560        C887   1.503       .  S
O561       Cu569   1.946       .  S
O562       Cu569   1.969       .  S
O563        C573   1.290       .  A
O564       Cu569   2.058       .  S
O565       Cu570   1.949       .  S
O565        C574   1.266       .  A
O566       Cu570   1.962       .  S
O566        C573   1.268       .  A
O567       Cu570   2.065       .  S
O567        C572   1.290       .  A
O568       Cu570   2.049       .  S
O568        C571   1.286       .  A
C571        C828   1.474       .  S
C572        C842   1.500       .  S
C573        C859   1.491       .  S
O575       Cu583   1.960       .  S
O575        C585   1.268       .  A
O576       Cu583   1.941       .  S
O576        C586   1.266       .  A
O577       Cu583   2.062       .  S
O577        C587   1.287       .  A
O578       Cu583   2.070       .  S
O578        C588   1.289       .  A
O579       Cu584   1.977       .  S
O579        C588   1.269       .  A
O580       Cu584   1.956       .  S
O580        C587   1.267       .  A
O581       Cu584   2.096       .  S
O581        C586   1.291       .  A
O582       Cu584   2.094       .  S
O582        C585   1.291       .  A
Cu583      Cu584   2.362       .  S
C585        C814   1.505       .  S
C586        C800   1.499       .  S
C587        C786   1.477       .  S
C588        C856   1.495       .  S
O589       Cu597   1.960       .  S
O589        C599   1.268   1_545  A
O590       Cu597   1.947       .  S
O590        C600   1.266   1_545  A
O591       Cu597   2.087       .  S
O591        C601   1.290   1_545  A
O592       Cu597   2.089   1_565  S
O592        C602   1.289       .  A
O593       Cu598   1.960       .  S
O593        C602   1.269       .  A
O594       Cu598   1.948       .  S
O594        C601   1.267       .  A
O595       Cu598   2.058       .  S
O595        C600   1.287       .  A
O596       Cu598   2.062       .  S
O596        C599   1.288       .  A
Cu597      Cu598   2.361   1_545  S
C599        C845   1.494       .  S
C600        C831   1.486       .  S
C601        C873   1.498       .  S
C602        C772   1.493       .  S
O603       Cu611   1.958       .  S
O603        C613   1.269       .  A
O604       Cu611   1.977       .  S
O604        C614   1.272       .  A
O605       Cu611   2.092       .  S
O605        C615   1.290       .  A
O606       Cu611   2.087       .  S
O606        C616   1.289       .  A
O607       Cu612   1.940       .  S
O607        C616   1.268       .  A
O608       Cu612   1.959       .  S
O608        C615   1.269       .  A
O609       Cu612   2.069       .  S
O609        C614   1.286       .  A
O610       Cu612   2.062       .  S
O610        C613   1.287       .  A
Cu611      Cu612   2.359       .  S
C613        C758   1.490       .  S
C614        C775   1.495       .  S
C615        C817   1.503       .  S
C616        C803   1.495       .  S
O617       Cu625   1.959       .  S
O617        C627   1.269       .  A
O618       Cu625   1.939       .  S
O618        C628   1.266       .  A
O619       Cu625   2.078       .  S
O619        C629   1.288       .  A
O620       Cu625   2.074       .  S
O620        C630   1.289       .  A
O621       Cu626   1.959       .  S
O621        C630   1.267       .  A
O622       Cu626   1.932       .  S
O622        C629   1.266       .  A
O623       Cu626   2.102       .  S
O623        C628   1.291       .  A
O624       Cu626   2.106       .  S
O624        C627   1.292       .  A
Cu625      Cu626   2.356       .  S
C627        C719   1.510       .  S
C628        C730   1.502       .  S
C629        C761   1.492       .  S
C630        C744   1.492       .  S
O631       Cu639   1.960       .  S
O631        C641   1.268       .  A
O632       Cu639   1.942       .  S
O632        C642   1.269       .  A
O633       Cu639   2.073       .  S
O633        C643   1.287       .  A
O634       Cu639   2.078       .  S
O634        C644   1.288       .  A
O635       Cu640   1.965       .  S
O635        C644   1.270       .  A
O636       Cu640   1.951       .  S
O636        C643   1.269       .  A
O637       Cu640   2.065       .  S
O637        C642   1.286       .  A
O638       Cu640   2.067       .  S
O638        C641   1.287       .  A
Cu639      Cu640   2.363       .  S
C641        C747   1.484       .  S
C642        C996   1.488       .  S
C643        C702   1.493       .  S
C644        C688   1.492       .  S
O645       Cu653   1.948       .  S
O645        C655   1.266       .  A
O646       Cu653   1.959       .  S
O646        C656   1.267       .  A
O647       Cu653   2.107       .  S
O647        C657   1.293       .  A
O648       Cu653   2.086       .  S
O648        C658   1.289       .  A
O649       Cu654   1.941       .  S
O649        C658   1.267       .  A
O650       Cu654   1.971       .  S
O650        C657   1.269       .  A
O651       Cu654   2.072       .  S
O651        C656   1.288       .  A
O652       Cu654   2.065       .  S
O652        C655   1.287       .  A
Cu653      Cu654   2.365       .  S
C655        C789   1.476       .  S
C656        C677   1.484       .  S
C657        C716   1.505       .  S
C658        C733   1.494       .  S
O659       Cu667   1.971       .  S
O659       C1677   1.270       .  A
O660       Cu667   1.939       .  S
O660       C1678   1.267       .  A
O661       Cu667   2.069       .  S
O661        C671   1.287       .  A
O662       Cu667   2.075       .  S
O662       C1680   1.289       .  A
O663       Cu668   1.964       .  S
O663        C672   1.267       .  A
O664       Cu668   1.947       .  S
O664       C1679   1.268   1_455  A
O665       Cu668   2.069       .  S
O665        C670   1.288   1_455  A
O666       Cu668   2.077       .  S
O666        C669   1.289   1_455  A
Cu667     Cu1676   2.364       .  S
Cu668     Cu1675   2.364   1_455  S
C669       O1667   1.270       .  A
C669       C1699   1.501       .  S
C670       O1668   1.267       .  A
C670       C1713   1.480       .  S
C671       O1672   1.268       .  A
C671        C898   1.487       .  S
C672       O1670   1.289   1_455  A
C672        C674   1.495       .  S
C673        C674   1.399       .  A
C673        C678   1.404   1_554  A
C673       H1688   1.080   1_455  S
C674        C675   1.428       .  A
C675        C676   1.404       .  A
C675        N682   1.430       .  S
C676        C677   1.393   1_554  A
C676        H681   1.080       .  S
C677        C678   1.419       .  A
C678        N679   1.428   1_455  S
N679        O684   1.262       .  A
N679       O1691   1.261       .  A
H680       C1681   1.080       .  S
N682        O685   1.261       .  A
N682        O686   1.262       .  A
O683       N1687   1.261       .  A
C687        C688   1.411       .  A
C687       C1700   1.404       .  A
C687       H1702   1.080       .  S
C688        C689   1.405       .  A
C689        C690   1.408       .  A
C689        N696   1.428       .  S
C690        C691   1.418       .  A
C690        H695   1.079       .  S
C691       C1677   1.501       .  S
C691       C1700   1.410       .  A
C692       C1695   1.404       .  A
C692       C1699   1.410   1_455  A
C692        N693   1.428       .  S
N693        O698   1.262       .  A
N693        O697   1.262       .  A
H694       C1695   1.080       .  S
N696        O699   1.262       .  A
N696        O700   1.262       .  A
C701        C702   1.415       .  A
C701       C1210   1.401   1_565  A
C701       H1716   1.079       .  S
C702        C703   1.408       .  A
C703        N710   1.428       .  S
C704        C705   1.413       .  A
C704        H709   1.080       .  S
C705       C1678   1.479       .  S
C705       C1714   1.400       .  A
C706       C1205   1.394       .  A
C706       C1713   1.400   1_455  A
C706        N707   1.426       .  S
N707        O712   1.261       .  A
N707        O711   1.262       .  A
H708       C1709   1.079       .  S
N710        O713   1.262       .  A
N710        O714   1.261       .  A
C715        C716   1.417       .  A
C715        C720   1.413       .  A
C715        H722   1.080       .  S
C716        C717   1.405       .  A
C717        C718   1.407       .  A
C717        N724   1.427       .  S
C718        C719   1.418       .  A
C718        H723   1.079       .  S
C719        C720   1.411       .  A
C720        N721   1.428       .  S
N721        O726   1.262       .  A
N721        O725   1.262       .  A
N724        O727   1.262       .  A
N724        O728   1.261       .  A
C729        C730   1.418       .  A
C729        H736   1.079       .  S
C730        C731   1.408       .  A
C731       C1236   1.408       .  A
C731       N1746   1.428       .  S
C732       C1235   1.401   1_455  A
C732        C733   1.416       .  A
C732        H737   1.080       .  S
C733       C1742   1.405   1_455  A
C734       C1741   1.405       .  A
C734        N735   1.428       .  S
N735        O740   1.261       .  A
N735        O739   1.262       .  A
N738       C1739   1.428       .  S
N738        O741   1.262       .  A
N738        O742   1.262   1_655  A
C743        C744   1.397       .  A
C743        C748   1.401   1_556  A
C743        H750   1.080       .  S
C744        C745   1.426       .  A
C745        C746   1.404   1_556  A
C745        N752   1.429       .  S
C746        C747   1.396       .  A
C746        H751   1.080       .  S
C747        C748   1.419       .  A
C748        N749   1.427       .  S
N749        O754   1.262       .  A
N749        O753   1.261       .  A
N752        O755   1.262       .  A
N752        O756   1.262       .  A
C757        C758   1.416       .  A
C757        C762   1.405       .  A
C757        H764   1.079       .  S
C758        C759   1.405       .  A
C759        C760   1.396       .  A
C759        N766   1.429       .  S
C760        C761   1.415       .  A
C760        H765   1.079       .  S
C761        C762   1.407       .  A
C762        N763   1.428       .  S
N763        O768   1.262       .  A
N763        O767   1.262       .  A
N766        O769   1.262       .  A
N766        O770   1.262       .  A
C771        C772   1.414       .  A
C771        C776   1.406       .  A
C771        H778   1.080       .  S
C772        C773   1.405       .  A
C773        C774   1.406       .  A
C773        N780   1.427       .  S
C774        C775   1.414       .  A
C774        H779   1.080       .  S
C775        C776   1.408       .  A
C776        N777   1.429       .  S
N777        O782   1.262       .  A
N777        O781   1.262       .  A
N780        O783   1.262       .  A
N780        O784   1.262   1_565  A
C785        C786   1.397       .  A
C785        C790   1.400       .  A
C785        H792   1.080       .  S
C786        C787   1.418       .  A
C787        C788   1.403       .  A
C787        N794   1.429       .  S
C788        C789   1.396       .  A
C788        H793   1.080       .  S
C789        C790   1.418       .  A
C790        N791   1.430       .  S
N791        O796   1.262       .  A
N791        O795   1.262       .  A
N794        O797   1.262       .  A
N794        O798   1.262       .  A
C799       C1808   1.417       .  A
C799        C804   1.403       .  A
C799       H1814   1.080       .  S
C800       C1807   1.418   1_455  A
C801       C1810   1.399       .  A
C801        N808   1.427   1_655  S
C802       C1809   1.399       .  A
C802        C803   1.415       .  A
C802        H807   1.080       .  S
C804        N805   1.428       .  S
N805        O810   1.262       .  A
N805        O809   1.262       .  A
H806       C1807   1.080       .  S
N808        O811   1.262       .  A
N808        O812   1.261       .  A
C813        C814   1.419       .  A
C813        C818   1.409       .  A
C813        H820   1.079       .  S
C814        C815   1.406       .  A
C815        C816   1.405       .  A
C815        N822   1.427       .  S
C816        C817   1.417       .  A
C816        H821   1.080       .  S
C817        C818   1.408       .  A
C818        N819   1.429       .  S
N819        O824   1.262       .  A
N819        O823   1.262       .  A
N822        O825   1.262       .  A
N822        O826   1.262       .  A
C827        C828   1.393       .  A
C827       C1840   1.397   1_455  A
C827        H834   1.079       .  S
C828       C1333   1.417   1_455  A
C829       C1332   1.419   1_565  A
C829        C830   1.399       .  A
C829       N1844   1.430       .  S
C830        C831   1.400       .  A
C830        H835   1.080       .  S
C832       C1835   1.397       .  A
C832        N833   1.429       .  S
N833        O838   1.262       .  A
N833        O837   1.262       .  A
N836       C1837   1.430       .  S
N836        O839   1.262       .  A
N836       O1848   1.262       .  A
O840       N1844   1.262       .  A
C841        C842   1.399       .  A
C841        C846   1.399       .  A
C841        H848   1.080       .  S
C843        C844   1.404       .  A
C843        N850   1.430       .  S
C844        C845   1.401       .  A
C844        H849   1.080       .  S
C846        N847   1.429       .  S
N847        O852   1.262       .  A
N847        O851   1.262       .  A
N850        O853   1.262       .  A
N850        O854   1.262       .  A
C855        C856   1.398       .  A
C855        C860   1.404       .  A
C855        H862   1.080       .  S
C856        C857   1.424       .  A
C857        C858   1.407       .  A
C857        N864   1.428       .  S
C858        C859   1.396       .  A
C858        H863   1.080       .  S
C859        C860   1.422       .  A
C860        N861   1.429       .  S
N861        O866   1.262       .  A
N861        O865   1.261       .  A
N864        O867   1.261       .  A
N864        O868   1.262       .  A
C869        C874   1.403       .  A
C869        H876   1.079       .  S
C870        C871   1.407       .  A
C871        C872   1.402       .  A
C871        N878   1.429       .  S
C872        C873   1.416       .  A
C872        H877   1.079       .  S
C874        N875   1.428       .  S
N875        O879   1.262       .  A
N878        O881   1.262       .  A
N878        O882   1.262       .  A
C883        C884   1.411       .  A
C883        C888   1.409       .  A
C883        H890   1.080       .  S
C884        C885   1.403       .  A
C885        C886   1.404       .  A
C885        N892   1.429       .  S
C886        C887   1.418       .  A
C886        H891   1.080       .  S
C887        C888   1.409       .  A
N889        O894   1.262       .  A
N889        O893   1.262       .  A
N892        O895   1.262       .  A
N892        O896   1.262       .  A
C897       C1906   1.414   1_455  A
C897       C1910   1.403       .  A
C897        H904   1.080       .  S
C898       C1905   1.414       .  A
C898        C899   1.407       .  A
C899        C900   1.401       .  A
C899        N906   1.429       .  S
C900        C901   1.413       .  A
C900        H905   1.080       .  S
C901        C902   1.406       .  A
C902       C1905   1.403       .  A
C902       N1911   1.428       .  S
N903       C1910   1.428       .  S
N903       O1916   1.262       .  A
N903        O907   1.262       .  A
N906        O909   1.262       .  A
N906        O910   1.262       .  A
O908       N1911   1.262       .  A
C911        C912   1.395   1_545  A
C911        C916   1.396       .  A
C911        H918   1.080       .  S
C912        C913   1.417       .  A
C913        C914   1.401       .  A
C913        N920   1.429       .  S
C914        C915   1.396       .  A
C914        H919   1.080       .  S
C915        C916   1.416   1_565  A
N917        O922   1.262       .  A
N920        O923   1.262       .  A
N920        O924   1.262       .  A
C925        C926   1.397       .  A
C925        C930   1.406       .  A
C925        H932   1.080       .  S
C927        C928   1.406       .  A
C927        N934   1.429       .  S
C928        C929   1.397       .  A
C928        H933   1.080       .  S
C930        N931   1.428       .  S
N931        O936   1.262       .  A
N931        O935   1.262       .  A
N934        O937   1.262       .  A
N934        O938   1.262       .  A
C939       C1952   1.402   1_455  A
C939        H946   1.080       .  S
C940       C1949   1.410   1_455  A
C941       C1948   1.410       .  A
C941        C942   1.408       .  A
C941        N948   1.427       .  S
C942        H947   1.080       .  S
C943        C944   1.405       .  A
C944       C1947   1.402       .  A
C944        N945   1.429       .  S
N945        O950   1.262       .  A
N945       O1957   1.262       .  A
N948        O951   1.262       .  A
N948        O952   1.262       .  A
O949       N1953   1.262   1_455  A
C953        C954   1.414       .  A
C953        C958   1.404       .  A
C953        H960   1.080       .  S
C954       C1526   1.494       .  S
C954       C1963   1.411       .  A
C955       C1962   1.410   1_455  A
C955       C1964   1.404       .  A
C955        N962   1.429       .  S
C956       C1963   1.404       .  A
C956        C957   1.410       .  A
C956       H1969   1.080       .  S
C957        C958   1.404       .  A
C958        N959   1.427       .  S
N959        O964   1.262       .  A
N959        O963   1.262       .  A
H961       C1964   1.080       .  S
N962        O965   1.262       .  A
N962        O966   1.262       .  A
C967        C972   1.403   1_545  A
C967        H974   1.080       .  S
C968       C1977   1.410       .  A
C969       C1976   1.410       .  A
C969        C970   1.403       .  A
C969        N976   1.428       .  S
C970       C1475   1.410       .  A
C970        H975   1.080       .  S
C971       C1525   1.493       .  S
C971       C1474   1.415       .  A
C971        C972   1.408       .  A
C972        N973   1.428   1_565  S
N973        O978   1.262       .  A
N973        O977   1.262       .  A
N976        O979   1.262       .  A
N976        O980   1.262       .  A
C981        C982   1.414       .  A
C981        C986   1.403       .  A
C981        H988   1.091       .  S
C982        C983   1.408       .  A
C983        C984   1.404       .  A
C983        N990   1.427       .  S
C984        C985   1.411       .  A
C984        H989   1.093       .  S
C985        C986   1.406       .  A
C986       N1995   1.428   1_455  S
N987       C1994   1.428       .  S
N987        O992   1.262       .  A
N987        O991   1.262       .  A
N990        O993   1.262   1_565  A
N990        O994   1.262   1_565  A
C995        C996   1.414       .  A
C995       C1000   1.395       .  A
C995       H1002   1.079       .  S
C996       C2005   1.407       .  A
C997       C2004   1.407   1_455  A
C997        C998   1.402       .  A
C997       N1004   1.428       .  S
C998       C2007   1.414   1_455  A
C998       H1003   1.080       .  S
C999       C2006   1.414       .  A
C999       C1000   1.405       .  A
C1000      N1001   1.428       .  S
N1001      O1006   1.262       .  A
N1001      O1005   1.262       .  A
N1004      O1007   1.262       .  A
N1004      O1008   1.262       .  A
O1009     Cu1017   1.966       .  S
O1009      C1019   1.272       .  A
O1010     Cu1017   1.955       .  S
O1011     Cu1017   2.055       .  S
O1011      C1021   1.285       .  A
O1012     Cu1017   2.057       .  S
O1012      C1022   1.285       .  A
O1013     Cu1018   1.979       .  S
O1014     Cu1018   1.954       .  S
O1015     Cu1018   2.064       .  S
O1015      C1020   1.287       .  A
O1016     Cu1018   2.074       .  S
C1019      C1489   1.502       .  S
C1020      C1503   1.491       .  S
O1023     Cu1031   1.964       .  S
O1023      C1033   1.268       .  A
O1024     Cu1031   1.947       .  S
O1024      C1034   1.265       .  A
O1025     Cu1031   2.092       .  S
O1025      C1035   1.290       .  A
O1026     Cu1031   2.086       .  S
O1026      C1036   1.291       .  A
O1027     Cu1032   1.956       .  S
O1027      C1036   1.266       .  A
O1028     Cu1032   1.950       .  S
O1028      C1035   1.268       .  A
O1029     Cu1032   2.079       .  S
O1029      C1034   1.291       .  A
O1030     Cu1032   2.078       .  S
O1030      C1033   1.288       .  A
Cu1031    Cu1032   2.365       .  S
C1033      C1486   1.481       .  S
C1034      C1416   1.489       .  S
C1035      C1444   1.498       .  S
C1036      C1430   1.492       .  S
O1037     Cu1045   1.955       .  S
O1037      C1047   1.270       .  A
O1038     Cu1045   1.958       .  S
O1038      C1048   1.270       .  A
O1039     Cu1045   2.063       .  S
O1039      C1049   1.285       .  A
O1040     Cu1045   2.061       .  S
O1040      C1050   1.286       .  A
O1041     Cu1046   1.958       .  S
O1041      C1050   1.270       .  A
O1042     Cu1046   1.963       .  S
O1042      C1049   1.270       .  A
O1043     Cu1046   2.070       .  S
O1043      C1048   1.286       .  A
O1044     Cu1046   2.063   1_455  S
O1044      C1047   1.286   1_455  A
Cu1045    Cu1046   2.367       .  S
C1047      C1405   1.490       .  S
C1048      C1388   1.483       .  S
C1049      C1461   1.480       .  S
C1050      C1472   1.486       .  S
O1051     Cu1059   1.979       .  S
O1051      C1565   1.270       .  A
O1052     Cu1059   1.953       .  S
O1052      C1566   1.268       .  A
O1053     Cu1059   2.071       .  S
O1053      C1567   1.288       .  A
O1054     Cu1563   2.070       .  S
O1054      C1064   1.288   1_565  A
O1055     Cu1060   1.967       .  S
O1055      C1064   1.270       .  A
O1056     Cu1060   1.967       .  S
O1056      C1063   1.271       .  A
O1057     Cu1060   2.063       .  S
O1057      C1062   1.286       .  A
O1058     Cu1060   2.063       .  S
O1058      C1061   1.288       .  A
Cu1059     O1558   2.096       .  S
Cu1059    Cu1564   2.361       .  S
Cu1060    Cu1563   2.363   1_545  S
C1061      O1555   1.270   1_545  A
C1061      C1433   1.493       .  S
C1062      O1556   1.269   1_545  A
C1062      C1447   1.479       .  S
C1063      O1557   1.287   1_545  A
C1063      C1878   1.496   1_545  S
C1064      C1391   1.491       .  S
O1065     Cu1073   1.946       .  S
O1065      C1579   1.267       .  A
O1066     Cu1073   1.985       .  S
O1066      C1580   1.269       .  A
O1067     Cu1577   2.081       .  S
O1067      C1077   1.289   1_565  A
O1068     Cu1073   2.069       .  S
O1068      C1582   1.289       .  A
O1069     Cu1074   1.940       .  S
O1069      C1078   1.265   1_545  A
O1070     Cu1074   1.959       .  S
O1070      C1077   1.267       .  A
O1071     Cu1074   2.069       .  S
O1071      C1076   1.289   1_545  A
O1072     Cu1074   2.048       .  S
O1072      C1075   1.287       .  A
Cu1073     O1571   2.083       .  S
Cu1073    Cu1578   2.367       .  S
Cu1074    Cu1577   2.371   1_545  S
C1075      O1569   1.266   1_545  A
C1075      C1332   1.476       .  S
C1076      O1570   1.268       .  A
C1076      C1346   1.488       .  S
C1077      C1363   1.486       .  S
C1078      O1572   1.286       .  A
C1078      C1923   1.468       .  S
O1079     Cu1087   1.969       .  S
O1079      C1089   1.270       .  A
O1080     Cu1087   1.952       .  S
O1080      C1090   1.268       .  A
O1081     Cu1087   2.055       .  S
O1081      C1091   1.286       .  A
O1082     Cu1087   2.065       .  S
O1082      C1092   1.288       .  A
O1083     Cu1088   1.981       .  S
O1083      C1092   1.270       .  A
O1084     Cu1088   1.957       .  S
O1084      C1091   1.267       .  A
O1085     Cu1088   2.079       .  S
O1085      C1090   1.289       .  A
O1086     Cu1088   2.077       .  S
O1086      C1089   1.289       .  A
Cu1087    Cu1088   2.364       .  S
C1089      C1318   1.502       .  S
C1090      C1304   1.492       .  S
C1091      C1290   1.476       .  S
C1092      C1360   1.499       .  S
O1093     Cu1101   1.965       .  S
O1093      C1103   1.269       .  A
O1094     Cu1101   1.947       .  S
O1094      C1104   1.265       .  A
O1095     Cu1101   2.091       .  S
O1095      C1105   1.290       .  A
O1096     Cu1101   2.101       .  S
O1096      C1106   1.291       .  A
O1097     Cu1102   1.943       .  S
O1097      C1106   1.267       .  A
O1098     Cu1102   1.918       .  S
O1098      C1105   1.264       .  A
O1099     Cu1102   2.058       .  S
O1099      C1104   1.288       .  A
O1100     Cu1102   2.064       .  S
O1100      C1103   1.287       .  A
Cu1101    Cu1102   2.359       .  S
C1103      C1349   1.490       .  S
C1104      C1335   1.486       .  S
C1105      C1377   1.490       .  S
C1106      C1276   1.502       .  S
O1107     Cu1115   1.952       .  S
O1107      C1117   1.269       .  A
O1108     Cu1115   1.961       .  S
O1108      C1118   1.268       .  A
O1109     Cu1115   2.083       .  S
O1109      C1119   1.289       .  A
O1110     Cu1115   2.084       .  S
O1110      C1120   1.289       .  A
O1111     Cu1116   1.956       .  S
O1111      C1120   1.269       .  A
O1112     Cu1116   1.966       .  S
O1112      C1119   1.270       .  A
O1113     Cu1116   2.070       .  S
O1113      C1118   1.287       .  A
O1114     Cu1116   2.066       .  S
O1114      C1117   1.287       .  A
Cu1115    Cu1116   2.364       .  S
C1117      C1262   1.491       .  S
C1118      C1279   1.476       .  S
C1119      C1321   1.495       .  S
C1120      C1307   1.497       .  S
O1121     Cu1129   1.981       .  S
O1121      C1131   1.271       .  A
O1122     Cu1129   1.957       .  S
O1122      C1132   1.269       .  A
O1123     Cu1129   2.078       .  S
O1123      C1133   1.288       .  A
O1124     Cu1129   2.082       .  S
O1124      C1134   1.290       .  A
O1125     Cu1130   1.964       .  S
O1125      C1134   1.268       .  A
O1126     Cu1130   1.934       .  S
O1126      C1133   1.267       .  A
O1127     Cu1130   2.075       .  S
O1127      C1132   1.288       .  A
O1128     Cu1130   2.083       .  S
O1128      C1131   1.290       .  A
Cu1129    Cu1130   2.360       .  S
C1131      C1223   1.505       .  S
C1132      C1234   1.495       .  S
C1133      C1265   1.491       .  S
C1134      C1248   1.493       .  S
O1135     Cu1143   1.968       .  S
O1135      C1145   1.268       .  A
O1136     Cu1143   1.939       .  S
O1136      C1146   1.267       .  A
O1137     Cu1143   2.085       .  S
O1137      C1147   1.289       .  A
O1138     Cu1143   2.093       .  S
O1138      C1148   1.291       .  A
O1139     Cu1144   1.952       .  S
O1139      C1148   1.268       .  A
O1140     Cu1144   1.924       .  S
O1140      C1147   1.265       .  A
O1141     Cu1144   2.076       .  S
O1141      C1146   1.288       .  A
O1142     Cu1144   2.077       .  S
O1142      C1145   1.289       .  A
Cu1143    Cu1144   2.358       .  S
C1145      C1251   1.493       .  S
C1146      C1500   1.493       .  S
C1147      C1206   1.491       .  S
C1148      C1192   1.504       .  S
O1149     Cu1157   1.947       .  S
O1149      C1159   1.266       .  A
O1150     Cu1157   1.946       .  S
O1150      C1160   1.265       .  A
O1151     Cu1157   2.099       .  S
O1151      C1161   1.291       .  A
O1152     Cu1157   2.089       .  S
O1152      C1162   1.291       .  A
O1153     Cu1158   1.946       .  S
O1153      C1162   1.266       .  A
O1154     Cu1158   1.973       .  S
O1154      C1161   1.270       .  A
O1155     Cu1158   2.067       .  S
O1155      C1160   1.289       .  A
O1156     Cu1158   2.060       .  S
O1156      C1159   1.287       .  A
Cu1157    Cu1158   2.365       .  S
C1159      C1293   1.476       .  S
C1160      C1181   1.489       .  S
C1161      C1220   1.498       .  S
C1162      C1237   1.490       .  S
O1163     Cu1171   1.971       .  S
O1164     Cu1171   1.956       .  S
O1165     Cu1171   2.061       .  S
O1165      C1175   1.285       .  A
O1166     Cu1171   2.060       .  S
O1167     Cu1172   1.963       .  S
O1167      C1176   1.269       .  A
O1168     Cu1172   1.951       .  S
O1169     Cu1172   2.070       .  S
O1169      C1174   1.287       .  A
O1170     Cu1172   2.083       .  S
O1170      C1173   1.289       .  A
C1175      C1402   1.489       .  S
C1176      C1178   1.475       .  S
C1177      C1178   1.392       .  A
C1177      C1182   1.399   1_554  A
C1178      C1179   1.415       .  A
C1179      C1180   1.401   1_554  A
C1179      N1186   1.425       .  S
C1180      C1181   1.398       .  A
C1180      H1185   1.080       .  S
C1181      C1182   1.427       .  A
C1182      N1183   1.429       .  S
N1183      O1188   1.262       .  A
N1186      O1189   1.262       .  A
N1186      O1190   1.262       .  A
C1191      C1192   1.418   1_455  A
C1192      C1193   1.408       .  A
C1193      C1194   1.407       .  A
C1193      N1200   1.428       .  S
C1194      C1195   1.417       .  A
C1194      H1199   1.079       .  S
C1196      N1197   1.429       .  S
N1197      O1202   1.262       .  A
N1197      O1201   1.262       .  A
N1200      O1203   1.262       .  A
N1200      O1204   1.262       .  A
C1205      C1206   1.415   1_455  A
C1206      C1207   1.407       .  A
C1207      C1712   1.404       .  A
C1207      N1214   1.427       .  S
C1208      C1711   1.402       .  A
C1208      C1209   1.414   1_565  A
C1208      H1213   1.080       .  S
C1210      N1211   1.429       .  S
N1211      O1216   1.261       .  A
N1211      O1215   1.261       .  A
N1214      O1217   1.262       .  A
N1214      O1218   1.262       .  A
C1219      C1220   1.411       .  A
C1219      C1224   1.406       .  A
C1219      H1226   1.080       .  S
C1220      C1221   1.409       .  A
C1221      C1222   1.412       .  A
C1221      N1228   1.428       .  S
C1222      C1223   1.417       .  A
C1222      H1227   1.080       .  S
C1223      C1224   1.411       .  A
C1224      N1225   1.428       .  S
N1225      O1230   1.262       .  A
N1225      O1229   1.262       .  A
N1228      O1231   1.262       .  A
N1228      O1232   1.262       .  A
C1233      C1234   1.417       .  A
C1233      C1742   1.404       .  A
C1233      H1240   1.080       .  S
C1234      C1235   1.407       .  A
C1236      C1237   1.415   1_565  A
C1236      H1241   1.080   1_565  S
C1238      C1737   1.401   1_545  A
C1238      N1239   1.427       .  S
N1239      O1244   1.261       .  A
N1239      O1243   1.262       .  A
N1242      O1245   1.262       .  A
N1242      O1246   1.260       .  A
C1247      C1248   1.397   1_554  A
C1247      C1252   1.406       .  A
C1247      H1254   1.080       .  S
C1248      C1249   1.423       .  A
C1249      C1250   1.404   1_556  A
C1249      N1256   1.427       .  S
C1250      C1251   1.396       .  A
C1250      H1255   1.080       .  S
C1251      C1252   1.423       .  A
C1252      N1253   1.429       .  S
N1253      O1258   1.262       .  A
N1253      O1257   1.262       .  A
N1256      O1259   1.261       .  A
N1256      O1260   1.262       .  A
C1261      C1262   1.416       .  A
C1261      C1266   1.403       .  A
C1261      H1268   1.079       .  S
C1262      C1263   1.405       .  A
C1263      C1264   1.397       .  A
C1263      N1270   1.428       .  S
C1264      C1265   1.415       .  A
C1264      H1269   1.080       .  S
C1265      C1266   1.406       .  A
C1266      N1267   1.428       .  S
N1267      O1272   1.262       .  A
N1267      O1271   1.262       .  A
N1270      O1273   1.262       .  A
N1270      O1274   1.262       .  A
C1275      C1276   1.416       .  A
C1275      C1280   1.399       .  A
C1275      H1282   1.079       .  S
C1276      C1277   1.412       .  A
C1277      C1278   1.410       .  A
C1277      N1284   1.427       .  S
C1278      C1279   1.408       .  A
C1278      H1283   1.080       .  S
C1279      C1280   1.402       .  A
C1280      N1281   1.429       .  S
N1281      O1286   1.262       .  A
N1281      O1285   1.261       .  A
N1284      O1287   1.262       .  A
N1284      O1288   1.262       .  A
C1289      C1290   1.396       .  A
C1289      C1294   1.398       .  A
C1289      H1296   1.080       .  S
C1290      C1291   1.418       .  A
C1291      C1292   1.403       .  A
C1291      N1298   1.428       .  S
C1292      C1293   1.397       .  A
C1292      H1297   1.080       .  S
C1293      C1294   1.418       .  A
C1294      N1295   1.430       .  S
N1295      O1300   1.262       .  A
N1295      O1299   1.262       .  A
N1298      O1301   1.262       .  A
N1298      O1302   1.262       .  A
C1303      C1308   1.406   1_545  A
C1304      C1809   1.404   1_545  A
C1305      C1808   1.406       .  A
C1305      N1312   1.427       .  S
C1306      C1307   1.416       .  A
C1306      H1311   1.080       .  S
C1307      C1812   1.407       .  A
C1308      C1811   1.407       .  A
C1308      N1309   1.428   1_565  S
N1309      O1314   1.262       .  A
N1309      O1313   1.262       .  A
N1312      O1315   1.262       .  A
N1312      O1316   1.261       .  A
C1317      C1318   1.418       .  A
C1317      C1322   1.408       .  A
C1317      H1324   1.079       .  S
C1318      C1319   1.410       .  A
C1319      C1320   1.404       .  A
C1319      N1326   1.428       .  S
C1320      C1321   1.412       .  A
C1320      H1325   1.080       .  S
C1321      C1322   1.407       .  A
C1322      N1323   1.428       .  S
N1323      O1328   1.262       .  A
N1323      O1327   1.261       .  A
N1326      O1329   1.262       .  A
N1326      O1330   1.262       .  A
C1331      C1332   1.393       .  A
C1331      H1338   1.080       .  S
C1333      C1334   1.398       .  A
C1334      C1335   1.399       .  A
C1334      H1339   1.080       .  S
C1335      C1840   1.426       .  A
C1336      C1839   1.425   1_545  A
C1336      N1337   1.429       .  S
N1337      O1342   1.262       .  A
N1337      O1341   1.262       .  A
N1340      O1343   1.262       .  A
C1345      C1346   1.396   1_545  A
C1345      C1350   1.402       .  A
C1345      H1352   1.080       .  S
C1346      C1851   1.421       .  A
C1347      C1850   1.428       .  A
C1347      C1348   1.409       .  A
C1347      N1354   1.429       .  S
C1348      C1349   1.399       .  A
C1348      H1353   1.080       .  S
C1349      C1854   1.419       .  A
C1350      C1853   1.423   1_545  A
C1350      N1351   1.429       .  S
N1351      O1356   1.262       .  A
N1351      O1355   1.262       .  A
N1354      O1357   1.262       .  A
N1354      O1358   1.262       .  A
C1359      C1360   1.401       .  A
C1359      C1364   1.404       .  A
C1359      H1366   1.080       .  S
C1360      C1361   1.426       .  A
C1361      C1362   1.406       .  A
C1361      N1368   1.428       .  S
C1362      C1363   1.395       .  A
C1362      H1367   1.080   1_545  S
C1363      C1364   1.419       .  A
C1364      N1365   1.430       .  S
N1365      O1370   1.262       .  A
N1365      O1369   1.262       .  A
N1368      O1371   1.261   1_545  A
N1368      O1372   1.262       .  A
C1373      C1878   1.416   1_545  A
C1373      C1378   1.406       .  A
C1373      H1380   1.079       .  S
C1374      C1567   1.491       .  S
C1374      C1877   1.418       .  A
C1374      C1375   1.406       .  A
C1375      C1376   1.398       .  A
C1375      N1382   1.429       .  S
C1376      C1377   1.416       .  A
C1376      H1381   1.080       .  S
C1377      C1882   1.403       .  A
C1378      C1881   1.407   1_545  A
C1378      N1379   1.428       .  S
N1379      O1888   1.262       .  A
N1379      O1383   1.262       .  A
N1382      O1385   1.262       .  A
N1382      O1386   1.261       .  A
O1384      N1883   1.262       .  A
C1387      C1388   1.410       .  A
C1387      C1392   1.402       .  A
C1387      H1394   1.080       .  S
C1388      C1389   1.405       .  A
C1389      C1390   1.405       .  A
C1389      N1396   1.429       .  S
C1390      C1391   1.415       .  A
C1390      H1395   1.080       .  S
C1391      C1392   1.406       .  A
C1392      N1897   1.427   1_545  S
N1393      C1896   1.427       .  S
N1393      O1398   1.262       .  A
N1393      O1397   1.262       .  A
N1396      O1399   1.262       .  A
N1396      O1400   1.262   1_655  A
C1401      H1408   1.079       .  S
C1402      C1403   1.407       .  A
C1403      C1404   1.402       .  A
C1403      N1410   1.429       .  S
C1404      C1405   1.415       .  A
C1404      H1409   1.079       .  S
C1405      C1406   1.407   1_655  A
N1407      O1411   1.262       .  A
N1410      O1413   1.262       .  A
N1410      O1414   1.262       .  A
C1415      C1416   1.397       .  A
C1415      C1420   1.401       .  A
C1415      H1422   1.080       .  S
C1416      C1417   1.425       .  A
C1417      C1418   1.402       .  A
C1417      N1424   1.429       .  S
C1418      C1419   1.395       .  A
C1418      H1423   1.080       .  S
C1419      C1582   1.486       .  S
C1419      C1420   1.423       .  A
C1420      N1925   1.430       .  S
N1421      C1924   1.430       .  S
N1421      O1426   1.262       .  A
N1421      O1929   1.262       .  A
N1424      O1427   1.262       .  A
N1424      O1428   1.262       .  A
O1425      N1925   1.262       .  A
C1429      C1430   1.399       .  A
C1429      C1434   1.404       .  A
C1429      H1436   1.080       .  S
C1430      C1935   1.424       .  A
C1431      C1934   1.418   1_545  A
C1431      C1432   1.402       .  A
C1431      N1438   1.430       .  S
C1432      C1433   1.401       .  A
C1432      H1437   1.080       .  S
C1433      C1938   1.423   1_545  A
C1434      C1937   1.417       .  A
C1434      N1435   1.427       .  S
N1435      O1440   1.262       .  A
N1435      O1439   1.262       .  A
N1438      O1441   1.262       .  A
N1438      O1442   1.262       .  A
C1443      C1948   1.415   1_545  A
C1443      H1450   1.080       .  S
C1444      C1947   1.416       .  A
C1445      C1446   1.406       .  A
C1445      N1452   1.427       .  S
C1446      C1951   1.412       .  A
C1446      H1451   1.080       .  S
C1447      C1950   1.411   1_545  A
C1447      C1448   1.403       .  A
C1448      N1449   1.429       .  S
N1449      O1454   1.262       .  A
N1452      O1455   1.262       .  A
N1452      O1456   1.262       .  A
C1457      C1458   1.413       .  A
C1457      C1462   1.405       .  A
C1457      H1464   1.080       .  S
C1459      N1466   1.429       .  S
C1460      C1461   1.406   1_455  A
C1461      C1462   1.405       .  A
C1462      N1463   1.428       .  S
N1463      O1468   1.262       .  A
N1463      O1467   1.262       .  A
N1466      O1469   1.262       .  A
N1466      O1470   1.262       .  A
C1471      C1976   1.416   1_455  A
C1471      C1476   1.398       .  A
C1471      H1478   1.079       .  S
C1472      C1975   1.413   1_655  A
C1473      C1474   1.398       .  A
C1473      N1480   1.428       .  S
C1474      H1479   1.079       .  S
C1475      C1476   1.404   1_655  A
C1476      N1477   1.429       .  S
N1477      O1482   1.262       .  A
N1477      O1481   1.262       .  A
N1480      O1483   1.262       .  A
N1480      O1484   1.262       .  A
C1485      C1486   1.408       .  A
C1485      C1490   1.409       .  A
C1485      H1492   1.076       .  S
C1486      C1487   1.404       .  A
C1487      C1488   1.403       .  A
C1487      N1494   1.429       .  S
C1488      C1489   1.416       .  A
C1488      H1493   1.076       .  S
C1489      C1490   1.413       .  A
N1491      O1496   1.262       .  A
N1491      O1495   1.262       .  A
N1494      O1497   1.262       .  A
N1494      O1498   1.262       .  A
C1499      C1500   1.416       .  A
C1499      C1504   1.398       .  A
C1499      H1506   1.079       .  S
C1501      C1502   1.402       .  A
C1501      N1508   1.428       .  S
C1502      H1507   1.079       .  S
C1503      C1504   1.406       .  A
C1504      N1505   1.429       .  S
N1505      O1510   1.262       .  A
N1505      O1509   1.262       .  A
N1508      O1511   1.262       .  A
N1508      O1512   1.262       .  A
O1513     Cu1521   1.972       .  S
O1513      C1523   1.272       .  A
O1514     Cu1521   1.948       .  S
O1515     Cu1521   2.072       .  S
O1515      C1525   1.287       .  A
O1516     Cu1521   2.074       .  S
O1516      C1526   1.288       .  A
O1517     Cu1522   1.961       .  S
O1518     Cu1522   1.947       .  S
O1519     Cu1522   2.056       .  S
O1519      C1524   1.286       .  A
O1520     Cu1522   2.067       .  S
C1523      C1993   1.489       .  S
C1524      C2007   1.485       .  S
O1527     Cu1535   1.965       .  S
O1527      C1537   1.271       .  A
O1528     Cu1535   1.944       .  S
O1528      C1538   1.266       .  A
O1529     Cu1535   2.092       .  S
O1529      C1539   1.289       .  A
O1530     Cu1535   2.076       .  S
O1530      C1540   1.289       .  A
O1531     Cu1536   1.958       .  S
O1531      C1540   1.267   1_545  A
O1532     Cu1536   1.939       .  S
O1532      C1539   1.267   1_545  A
O1533     Cu1536   2.056       .  S
O1533      C1538   1.286   1_545  A
O1534     Cu1536   2.078   1_565  S
O1534      C1537   1.288       .  A
Cu1535    Cu1536   2.366   1_565  S
C1537      C1990   1.495       .  S
C1538      C1920   1.468       .  S
C1539      C1948   1.496       .  S
C1540      C1934   1.483       .  S
O1541     Cu1549   1.949       .  S
O1541      C1551   1.268       .  A
O1542     Cu1549   1.964       .  S
O1542      C1552   1.269       .  A
O1543     Cu1549   2.079       .  S
O1543      C1553   1.288       .  A
O1544     Cu1549   2.076       .  S
O1544      C1554   1.287       .  A
O1545     Cu1550   1.947   1_655  S
O1545      C1554   1.269       .  A
O1546     Cu1550   1.957       .  S
O1546      C1553   1.268   1_455  A
O1547     Cu1550   2.083   1_655  S
O1547      C1552   1.288       .  A
O1548     Cu1550   2.078       .  S
O1548      C1551   1.288   1_455  A
Cu1549    Cu1550   2.364   1_655  S
C1551      C1909   1.488       .  S
C1552      C1892   1.486       .  S
C1553      C1965   1.485       .  S
C1554      C1976   1.494       .  S
O1555     Cu1563   1.976       .  S
O1556     Cu1563   1.962       .  S
O1557     Cu1563   2.069       .  S
O1558      C1568   1.291       .  A
O1559     Cu1564   1.951       .  S
O1559      C1568   1.269       .  A
O1560     Cu1564   1.950       .  S
O1560      C1567   1.268       .  A
O1561     Cu1564   2.077       .  S
O1561      C1566   1.288       .  A
O1562     Cu1564   2.070       .  S
O1562      C1565   1.287       .  A
C1565      C1937   1.487       .  S
C1566      C1951   1.485       .  S
C1568      C1895   1.503       .  S
O1569     Cu1577   1.945       .  S
O1570     Cu1577   1.968       .  S
O1571      C1581   1.290       .  A
O1572     Cu1577   2.058       .  S
O1573     Cu1578   1.949       .  S
O1573      C1582   1.266       .  A
O1574     Cu1578   1.962       .  S
O1574      C1581   1.268       .  A
O1575     Cu1578   2.064       .  S
O1575      C1580   1.290       .  A
O1576     Cu1578   2.049       .  S
O1576      C1579   1.286       .  A
C1579      C1836   1.474       .  S
C1580      C1850   1.500       .  S
C1581      C1867   1.491       .  S
O1583     Cu1591   1.961       .  S
O1583      C1593   1.268       .  A
O1584     Cu1591   1.941       .  S
O1584      C1594   1.267       .  A
O1585     Cu1591   2.062       .  S
O1585      C1595   1.287       .  A
O1586     Cu1591   2.069       .  S
O1586      C1596   1.288       .  A
O1587     Cu1592   1.977       .  S
O1587      C1596   1.269       .  A
O1588     Cu1592   1.956       .  S
O1588      C1595   1.267       .  A
O1589     Cu1592   2.095       .  S
O1589      C1594   1.291       .  A
O1590     Cu1592   2.093       .  S
O1590      C1593   1.291       .  A
Cu1591    Cu1592   2.362       .  S
C1593      C1822   1.505       .  S
C1594      C1808   1.499       .  S
C1595      C1794   1.477       .  S
C1596      C1864   1.495       .  S
O1597     Cu1605   1.962       .  S
O1597      C1607   1.268   1_545  A
O1598     Cu1605   1.949       .  S
O1598      C1608   1.266   1_545  A
O1599     Cu1605   2.087       .  S
O1599      C1609   1.290   1_545  A
O1600     Cu1605   2.088   1_565  S
O1600      C1610   1.289       .  A
O1601     Cu1606   1.960       .  S
O1601      C1610   1.269       .  A
O1602     Cu1606   1.949       .  S
O1602      C1609   1.268       .  A
O1603     Cu1606   2.057       .  S
O1603      C1608   1.287       .  A
O1604     Cu1606   2.061       .  S
O1604      C1607   1.288       .  A
Cu1605    Cu1606   2.361   1_545  S
C1607      C1853   1.493       .  S
C1608      C1839   1.487       .  S
C1609      C1881   1.498       .  S
C1610      C1780   1.493       .  S
O1611     Cu1619   1.957       .  S
O1611      C1621   1.269       .  A
O1612     Cu1619   1.977       .  S
O1612      C1622   1.272       .  A
O1613     Cu1619   2.092       .  S
O1613      C1623   1.290       .  A
O1614     Cu1619   2.087       .  S
O1614      C1624   1.289       .  A
O1615     Cu1620   1.940       .  S
O1615      C1624   1.268       .  A
O1616     Cu1620   1.959       .  S
O1616      C1623   1.269       .  A
O1617     Cu1620   2.069       .  S
O1617      C1622   1.286       .  A
O1618     Cu1620   2.062       .  S
O1618      C1621   1.287       .  A
Cu1619    Cu1620   2.359       .  S
C1621      C1766   1.490       .  S
C1622      C1783   1.495       .  S
C1623      C1825   1.503       .  S
C1624      C1811   1.495       .  S
O1625     Cu1633   1.959       .  S
O1625      C1635   1.269       .  A
O1626     Cu1633   1.939       .  S
O1626      C1636   1.266       .  A
O1627     Cu1633   2.078       .  S
O1627      C1637   1.288       .  A
O1628     Cu1633   2.074       .  S
O1628      C1638   1.289       .  A
O1629     Cu1634   1.959       .  S
O1629      C1638   1.267       .  A
O1630     Cu1634   1.932       .  S
O1630      C1637   1.266       .  A
O1631     Cu1634   2.102       .  S
O1631      C1636   1.291       .  A
O1632     Cu1634   2.106       .  S
O1632      C1635   1.292       .  A
Cu1633    Cu1634   2.356       .  S
C1635      C1727   1.510       .  S
C1636      C1738   1.501       .  S
C1637      C1769   1.492       .  S
C1638      C1752   1.492       .  S
O1639     Cu1647   1.959       .  S
O1639      C1649   1.268       .  A
O1640     Cu1647   1.942       .  S
O1640      C1650   1.268       .  A
O1641     Cu1647   2.073       .  S
O1641      C1651   1.287       .  A
O1642     Cu1647   2.079       .  S
O1642      C1652   1.288       .  A
O1643     Cu1648   1.966       .  S
O1643      C1652   1.270       .  A
O1644     Cu1648   1.951       .  S
O1644      C1651   1.269       .  A
O1645     Cu1648   2.065   1_455  S
O1645      C1650   1.286   1_455  A
O1646     Cu1648   2.067       .  S
O1646      C1649   1.287       .  A
Cu1647    Cu1648   2.363       .  S
C1649      C1755   1.484       .  S
C1650      C2004   1.488       .  S
C1651      C1710   1.494       .  S
C1652      C1696   1.492       .  S
O1653     Cu1661   1.948       .  S
O1653      C1663   1.266       .  A
O1654     Cu1661   1.959       .  S
O1654      C1664   1.267       .  A
O1655     Cu1661   2.107       .  S
O1655      C1665   1.293       .  A
O1656     Cu1661   2.086       .  S
O1656      C1666   1.289       .  A
O1657     Cu1662   1.940       .  S
O1657      C1666   1.267       .  A
O1658     Cu1662   1.970       .  S
O1658      C1665   1.269       .  A
O1659     Cu1662   2.072       .  S
O1659      C1664   1.288       .  A
O1660     Cu1662   2.065       .  S
O1660      C1663   1.287       .  A
Cu1661    Cu1662   2.365       .  S
C1663      C1797   1.476       .  S
C1664      C1685   1.484       .  S
C1665      C1724   1.505       .  S
C1666      C1741   1.494       .  S
O1667     Cu1675   1.971       .  S
O1668     Cu1675   1.940       .  S
O1669     Cu1675   2.069       .  S
O1669      C1679   1.287       .  A
O1670     Cu1675   2.075       .  S
O1671     Cu1676   1.964       .  S
O1671      C1680   1.267       .  A
O1672     Cu1676   1.947       .  S
O1673     Cu1676   2.068       .  S
O1673      C1678   1.288       .  A
O1674     Cu1676   2.077       .  S
O1674      C1677   1.289       .  A
C1679      C1906   1.487       .  S
C1680      C1682   1.495       .  S
C1681      C1682   1.399       .  A
C1681      C1686   1.404   1_554  A
C1682      C1683   1.428       .  A
C1683      C1684   1.404       .  A
C1683      N1690   1.430       .  S
C1684      C1685   1.393   1_554  A
C1684      H1689   1.080       .  S
C1685      C1686   1.419       .  A
C1686      N1687   1.428       .  S
N1687      O1692   1.262       .  A
N1690      O1693   1.261       .  A
N1690      O1694   1.262       .  A
C1695      C1696   1.411   1_455  A
C1696      C1697   1.405       .  A
C1697      C1698   1.408       .  A
C1697      N1704   1.428       .  S
C1698      C1699   1.418       .  A
C1698      H1703   1.079       .  S
C1700      N1701   1.428       .  S
N1701      O1706   1.262       .  A
N1701      O1705   1.262       .  A
N1704      O1707   1.262       .  A
N1704      O1708   1.262       .  A
C1709      C1710   1.415   1_455  A
C1710      C1711   1.408       .  A
C1711      N1718   1.428       .  S
C1712      C1713   1.414       .  A
C1712      H1717   1.080       .  S
C1714      N1715   1.426       .  S
N1715      O1720   1.261       .  A
N1715      O1719   1.262       .  A
N1718      O1721   1.262       .  A
N1718      O1722   1.261       .  A
C1723      C1724   1.417       .  A
C1723      C1728   1.412       .  A
C1723      H1730   1.080       .  S
C1724      C1725   1.405       .  A
C1725      C1726   1.407       .  A
C1725      N1732   1.427       .  S
C1726      C1727   1.418       .  A
C1726      H1731   1.079       .  S
C1727      C1728   1.410       .  A
C1728      N1729   1.428       .  S
N1729      O1734   1.262       .  A
N1729      O1733   1.262       .  A
N1732      O1735   1.262       .  A
N1732      O1736   1.261       .  A
C1737      C1738   1.418       .  A
C1737      H1744   1.079       .  S
C1738      C1739   1.408       .  A
C1740      C1741   1.416       .  A
C1740      H1745   1.080       .  S
C1742      N1743   1.428       .  S
N1743      O1748   1.261       .  A
N1743      O1747   1.262       .  A
N1746      O1749   1.262       .  A
N1746      O1750   1.262       .  A
C1751      C1752   1.397       .  A
C1751      C1756   1.401   1_556  A
C1751      H1758   1.080       .  S
C1752      C1753   1.426       .  A
C1753      C1754   1.404   1_556  A
C1753      N1760   1.429       .  S
C1754      C1755   1.395       .  A
C1754      H1759   1.080       .  S
C1755      C1756   1.419       .  A
C1756      N1757   1.427       .  S
N1757      O1762   1.262       .  A
N1757      O1761   1.261       .  A
N1760      O1763   1.262       .  A
N1760      O1764   1.262       .  A
C1765      C1766   1.416       .  A
C1765      C1770   1.405       .  A
C1765      H1772   1.079       .  S
C1766      C1767   1.405       .  A
C1767      C1768   1.396       .  A
C1767      N1774   1.429       .  S
C1768      C1769   1.415       .  A
C1768      H1773   1.079       .  S
C1769      C1770   1.407       .  A
C1770      N1771   1.428       .  S
N1771      O1776   1.262       .  A
N1771      O1775   1.262       .  A
N1774      O1777   1.262       .  A
N1774      O1778   1.262       .  A
C1779      C1780   1.413       .  A
C1779      C1784   1.406       .  A
C1779      H1786   1.080       .  S
C1780      C1781   1.405       .  A
C1781      C1782   1.406       .  A
C1781      N1788   1.427       .  S
C1782      C1783   1.415       .  A
C1782      H1787   1.080       .  S
C1783      C1784   1.408       .  A
C1784      N1785   1.429       .  S
N1785      O1790   1.262       .  A
N1785      O1789   1.262       .  A
N1788      O1791   1.262       .  A
N1788      O1792   1.262   1_565  A
C1793      C1794   1.397       .  A
C1793      C1798   1.400       .  A
C1793      H1800   1.080       .  S
C1794      C1795   1.418       .  A
C1795      C1796   1.403       .  A
C1795      N1802   1.429       .  S
C1796      C1797   1.396       .  A
C1796      H1801   1.080       .  S
C1797      C1798   1.418       .  A
C1798      N1799   1.430       .  S
N1799      O1804   1.262       .  A
N1799      O1803   1.262       .  A
N1802      O1805   1.262       .  A
N1802      O1806   1.262       .  A
C1807      C1812   1.403       .  A
C1809      N1816   1.427       .  S
C1810      C1811   1.415       .  A
C1810      H1815   1.080       .  S
C1812      N1813   1.428       .  S
N1813      O1818   1.262       .  A
N1813      O1817   1.262       .  A
N1816      O1819   1.262       .  A
N1816      O1820   1.261       .  A
C1821      C1822   1.420       .  A
C1821      C1826   1.409       .  A
C1821      H1828   1.079       .  S
C1822      C1823   1.406       .  A
C1823      C1824   1.404       .  A
C1823      N1830   1.427       .  S
C1824      C1825   1.416       .  A
C1824      H1829   1.080       .  S
C1825      C1826   1.408       .  A
C1826      N1827   1.429       .  S
N1827      O1832   1.262       .  A
N1827      O1831   1.262       .  A
N1830      O1833   1.262       .  A
N1830      O1834   1.262       .  A
C1835      C1836   1.393       .  A
C1835      H1842   1.079       .  S
C1837      C1838   1.399       .  A
C1838      C1839   1.400       .  A
C1838      H1843   1.080       .  S
C1840      N1841   1.429       .  S
N1841      O1846   1.262       .  A
N1841      O1845   1.262       .  A
N1844      O1847   1.262       .  A
C1849      C1850   1.399       .  A
C1849      C1854   1.399       .  A
C1849      H1856   1.080       .  S
C1851      C1852   1.403       .  A
C1851      N1858   1.430       .  S
C1852      C1853   1.400       .  A
C1852      H1857   1.080       .  S
C1854      N1855   1.429       .  S
N1855      O1860   1.262       .  A
N1855      O1859   1.262       .  A
N1858      O1861   1.262       .  A
N1858      O1862   1.262       .  A
C1863      C1864   1.398       .  A
C1863      C1868   1.404       .  A
C1863      H1870   1.080       .  S
C1864      C1865   1.424       .  A
C1865      C1866   1.407       .  A
C1865      N1872   1.428       .  S
C1866      C1867   1.396       .  A
C1866      H1871   1.080       .  S
C1867      C1868   1.422       .  A
C1868      N1869   1.429       .  S
N1869      O1874   1.262       .  A
N1869      O1873   1.261       .  A
N1872      O1875   1.261       .  A
N1872      O1876   1.262       .  A
C1877      C1882   1.403       .  A
C1877      H1884   1.079       .  S
C1878      C1879   1.407       .  A
C1879      C1880   1.402       .  A
C1879      N1886   1.429       .  S
C1880      C1881   1.416       .  A
C1880      H1885   1.079       .  S
C1882      N1883   1.428       .  S
N1883      O1887   1.262       .  A
N1886      O1889   1.262       .  A
N1886      O1890   1.262       .  A
C1891      C1892   1.411       .  A
C1891      C1896   1.409       .  A
C1891      H1898   1.080       .  S
C1892      C1893   1.403       .  A
C1893      C1894   1.404       .  A
C1893      N1900   1.429       .  S
C1894      C1895   1.419       .  A
C1894      H1899   1.080       .  S
C1895      C1896   1.410       .  A
N1897      O1902   1.262       .  A
N1897      O1901   1.262       .  A
N1900      O1903   1.262       .  A
N1900      O1904   1.262   1_655  A
C1905      H1912   1.080       .  S
C1906      C1907   1.406       .  A
C1907      C1908   1.400       .  A
C1907      N1914   1.429       .  S
C1908      C1909   1.413       .  A
C1908      H1913   1.080       .  S
C1909      C1910   1.406   1_655  A
N1911      O1915   1.262       .  A
N1914      O1917   1.262       .  A
N1914      O1918   1.262       .  A
C1919      C1920   1.395   1_545  A
C1919      C1924   1.396       .  A
C1919      H1926   1.080       .  S
C1920      C1921   1.417       .  A
C1921      C1922   1.401       .  A
C1921      N1928   1.429       .  S
C1922      C1923   1.396       .  A
C1922      H1927   1.080       .  S
C1923      C1924   1.416   1_565  A
N1925      O1930   1.262       .  A
N1928      O1931   1.262       .  A
N1928      O1932   1.262       .  A
C1933      C1934   1.396       .  A
C1933      C1938   1.406       .  A
C1933      H1940   1.080       .  S
C1935      C1936   1.406       .  A
C1935      N1942   1.429       .  S
C1936      C1937   1.397       .  A
C1936      H1941   1.080       .  S
C1938      N1939   1.428       .  S
N1939      O1944   1.262       .  A
N1939      O1943   1.262       .  A
N1942      O1945   1.262       .  A
N1942      O1946   1.262       .  A
C1947      H1954   1.080       .  S
C1949      C1950   1.408       .  A
C1949      N1956   1.427       .  S
C1950      H1955   1.080       .  S
C1951      C1952   1.405       .  A
C1952      N1953   1.429       .  S
N1953      O1958   1.262       .  A
N1956      O1959   1.262       .  A
N1956      O1960   1.262       .  A
C1961      C1962   1.414       .  A
C1961      C1966   1.404       .  A
C1961      H1968   1.080       .  S
C1963      N1970   1.429       .  S
C1964      C1965   1.410   1_455  A
C1965      C1966   1.404       .  A
C1966      N1967   1.427       .  S
N1967      O1972   1.262       .  A
N1967      O1971   1.262       .  A
N1970      O1973   1.262       .  A
N1970      O1974   1.262       .  A
C1975      C1980   1.403   1_545  A
C1975      H1982   1.080       .  S
C1977      C1978   1.403       .  A
C1977      N1984   1.428       .  S
C1978      H1983   1.080       .  S
C1979      C1980   1.409   1_655  A
C1980      N1981   1.428   1_565  S
N1981      O1986   1.262       .  A
N1981      O1985   1.262       .  A
N1984      O1987   1.262       .  A
N1984      O1988   1.262       .  A
C1989      C1990   1.414       .  A
C1989      C1994   1.403       .  A
C1989      H1996   1.091       .  S
C1990      C1991   1.408       .  A
C1991      C1992   1.404       .  A
C1991      N1998   1.427       .  S
C1992      C1993   1.411       .  A
C1992      H1997   1.093       .  S
C1993      C1994   1.406       .  A
N1995      O2000   1.262       .  A
N1995      O1999   1.262       .  A
N1998      O2001   1.262   1_565  A
N1998      O2002   1.262   1_565  A
C2003      C2004   1.414       .  A
C2003      C2008   1.395       .  A
C2003      H2010   1.079       .  S
C2005      C2006   1.402       .  A
C2005      N2012   1.428       .  S
C2006      H2011   1.080       .  S
C2007      C2008   1.405       .  A
C2008      N2009   1.428       .  S
N2009      O2014   1.262       .  A
N2009      O2013   1.262       .  A
N2012      O2015   1.262       .  A
N2012      O2016   1.262       .  A
