geometry optimzed in LAMMPS
_audit_creation_date              2020-12-01 
_audit_creation_method            'lammps2cif' 
_symmetry_space_group_name_H-M    'P1' 
_symmetry_Int_Tables_number       1 
_symmetry_cell_setting            triclinic 
loop_ 
_symmetry_equiv_pos_as_xyz 
  x,y,z 
_cell_length_a                    60.62299412 
_cell_length_b                    60.589970441326535 
_cell_length_c                    38.75170698399333 
_cell_angle_alpha                 90.01534046868399 
_cell_angle_beta                  90.04881526435085 
_cell_angle_gamma                 120.07859164621804 
loop_ 
_atom_site_label 
_atom_site_type_symbol 
_atom_site_fract_x 
_atom_site_fract_y 
_atom_site_fract_z 
_atom_site_charge 
O1          O  0.41770533  0.39842414  0.31782846    -0.74600
O2          O  0.35437031  0.33507630  0.31559811    -0.74600
O3          O  0.37633696  0.37800004  0.27613117    -0.74700
O4          O  0.39655678  0.35606245  0.35701956    -0.74700
O5          O  0.37793646  0.37216543  0.39011155    -0.74700
O6          O  0.35931853  0.39573014  0.30927188    -0.74600
O7          O  0.33655563  0.35240329  0.34786330    -0.74600
O8          O  0.39983018  0.41491873  0.35142104    -0.74700
Ni9        Ni  0.38676147  0.36615461  0.31542986     1.25400
Ni10       Ni  0.36766730  0.38426747  0.35084101     1.25400
C11         C  0.41925866  0.41704430  0.33551534     0.87600
C12         C  0.33489231  0.33348185  0.33097340     0.87500
C13         C  0.36541395  0.39131622  0.27946969     0.87500
C14         C  0.39132755  0.36129937  0.38687693     0.87700
O15         O  0.08327476  0.10510277  0.31871134    -0.74600
O16         O  0.14681485  0.16795158  0.31485399    -0.74600
O17         O  0.12394395  0.12509509  0.27560375    -0.74700
O18         O  0.10556260  0.14745495  0.35778740    -0.74700
O19         O  0.12395007  0.13062362  0.38995880    -0.74700
O20         O  0.14161475  0.10749478  0.30775326    -0.74600
O21         O  0.16483341  0.15069672  0.34689950    -0.74600
O22         O  0.10149119  0.08818796  0.35091441    -0.74700
Ni23       Ni  0.11436154  0.13712468  0.31556095     1.25400
Ni24       Ni  0.13374657  0.11876762  0.34998340     1.25400
C25         C  0.08183903  0.08639180  0.33598854     0.87600
C26         C  0.16631680  0.16961440  0.33018112     0.87500
C27         C  0.13506596  0.11192179  0.27825012     0.87500
C28         C  0.11072024  0.14169112  0.38735097     0.87700
O29         O  0.47943452  0.39606282  0.68196072    -0.74600
O30         O  0.47650876  0.33133017  0.68436764    -0.74600
O31         O  0.49590320  0.37312211  0.72633344    -0.74700
O32         O  0.45983655  0.35491649  0.64033950    -0.74700
O33         O  0.99670779  0.37129091  0.61192286    -0.74700
O34         O  0.03292447  0.38999762  0.69824856    -0.74600
O35         O  0.01373424  0.34843449  0.65668369    -0.74600
O36         O  0.01628814  0.41268195  0.65375955    -0.74700
Ni37       Ni  0.47660432  0.36313498  0.68428118     1.25400
Ni38       Ni  0.01620164  0.38109430  0.65412009     1.25400
C39         C  0.49829398  0.41505408  0.66711490     0.87600
C40         C  0.49475625  0.32931581  0.67095679     0.87500
C41         C  0.02033089  0.38523780  0.72647357     0.87500
C42         C  0.47234210  0.36089151  0.61198921     0.87700
O43         O  0.02071495  0.10309295  0.68280606    -0.74600
O44         O  0.01961747  0.16586247  0.68471605    -0.74600
O45         O  0.00100742  0.12392079  0.72584491    -0.74700
O46         O  0.03957836  0.14454444  0.64187130    -0.74700
O47         O  0.50346678  0.12676003  0.61146008    -0.74700
O48         O  0.46479022  0.10550361  0.69574238    -0.74600
O49         O  0.48322560  0.14738549  0.65477526    -0.74600
O50         O  0.48468660  0.08510634  0.65233065    -0.74700
Ni51       Ni  0.02151142  0.13511508  0.68491151     1.25400
Ni52       Ni  0.48276656  0.11563763  0.65249338     1.25400
C53         C  0.00301170  0.08382967  0.66675261     0.87600
C54         C  0.00112486  0.16680508  0.67013682     0.87500
C55         C  0.47663272  0.11053681  0.72468880     0.87500
C56         C  0.02789282  0.13823811  0.61283378     0.87700
O57         O  0.41525833  0.02003807  0.01329198    -0.74600
O58         O  0.35233547  0.02032182  0.01673595    -0.74600
O59         O  0.37602169  0.00253430  0.05827845    -0.74700
O60         O  0.39197603  0.03807684  0.97192615    -0.74700
O61         O  0.37235512  0.50117019  0.94408726    -0.74700
O62         O  0.35739397  0.46538907  0.03028981    -0.74600
O63         O  0.33303879  0.48303592  0.98932495    -0.74600
O64         O  0.39618739  0.48323442  0.98513080    -0.74700
Ni65       Ni  0.38451597  0.02156162  0.01604031     1.25400
Ni66       Ni  0.36397772  0.48189905  0.98617975     1.25400
C67         C  0.41600862  0.00127959  0.99927479     0.87600
C68         C  0.33222261  0.00161483  0.00364798     0.87500
C69         C  0.36477356  0.47816386  0.05845337     0.87500
C70         C  0.38504019  0.02549963  0.94360678     0.87700
O71         O  0.08448689  0.48359936  0.01405070    -0.74600
O72         O  0.14909180  0.48675293  0.01450218    -0.74600
O73         O  0.12562079  0.50451534  0.05628131    -0.74700
O74         O  0.10767447  0.46579777  0.97215698    -0.74700
O75         O  0.12394081  0.00166137  0.94194038    -0.74700
O76         O  0.14248714  0.04035136  0.02598567    -0.74600
O77         O  0.16576191  0.02236455  0.98357910    -0.74600
O78         O  0.10129308  0.01965580  0.98408898    -0.74700
Ni79       Ni  0.11620088  0.48387795  0.01530277     1.25400
Ni80       Ni  0.13407471  0.02229383  0.98282387     1.25400
C81         C  0.08224145  0.00117296  0.99930636     0.87600
C82         C  0.16804363  0.00508206  0.99947644     0.87500
C83         C  0.13630218  0.02869748  0.05505710     0.87500
C84         C  0.11224833  0.47730334  0.94300023     0.87700
C85         C  0.01681623  0.48971089  0.02469913    -0.11600
C86         C  0.01018082  0.99877783  0.99561112     0.15000
C87         C  0.02774000  0.00936040  0.96814669     0.01900
C88         C  0.05087037  0.00953444  0.96992389    -0.15900
C89         C  0.05741884  0.00025251  0.99909703    -0.10700
C90         C  0.04034248  0.49077113  0.02700460     0.08600
C91         C  0.48579467  0.99879688  0.99607647     0.09600
S92         S  0.02224560  0.02357729  0.93059134    -0.25000
H93         H  0.06396919  0.01725154  0.94849663     0.19900
S94         S  0.04786310  0.48122273  0.06735606    -0.30700
H95         H  0.50378915  0.48236499  0.04627268     0.10200
C96         C  0.46564682  0.48379824  0.97342267     0.03400
C97         C  0.44320693  0.48513143  0.97488640    -0.13000
C98         C  0.44008464  0.00045285  0.99931705    -0.08700
C99         C  0.45997038  0.01433885  0.02335155     0.06900
C100        C  0.48267386  0.01381963  0.02087068    -0.13800
S101        S  0.46796262  0.46205868  0.94370244    -0.30700
H102        H  0.42791731  0.47391463  0.95701981     0.11100
S103        S  0.45729431  0.03178857  0.05922756    -0.27800
H104        H  0.99790644  0.02480320  0.03898156     0.08300
H105        H  0.07335876  0.50121538  0.06813572     0.26800
H106        H  0.44418820  0.45324006  0.92759554     0.21600
H107        H  0.43280548  0.01215627  0.06865490     0.26900
H108        H  0.00722950  0.03205352  0.94716108     0.15700
C109        C  0.26179189  0.48154335  0.00328828    -0.11600
C110        C  0.26323036  0.00531419  0.00085065     0.15000
C111        C  0.28730658  0.02777132  0.00088212     0.01900
C112        C  0.30936358  0.02590461  0.00221381    -0.15900
C113        C  0.30805984  0.00211280  0.00422703    -0.10700
C114        C  0.28383952  0.47969120  0.00552906     0.08600
C115        C  0.23920468  0.00593902  0.99982221     0.09600
S116        S  0.29130938  0.05934568  0.99893646    -0.25000
H117        H  0.32774456  0.04325325  0.00133098     0.19900
S118        S  0.27957616  0.44827861  0.01153517    -0.30700
H119        H  0.24329362  0.46432293  0.00411321     0.10200
C120        C  0.22995447  0.51079278  0.96890656     0.03400
C121        C  0.20697041  0.51114944  0.96952539    -0.13000
C122        C  0.19301220  0.00643826  0.00046895    -0.08700
C123        C  0.20272016  0.00206669  0.03128104     0.06900
C124        C  0.22542928  0.00146025  0.03049586    -0.13800
S125        S  0.24704459  0.51579962  0.92885832    -0.30700
H126        H  0.19943464  0.51436752  0.94588502     0.11100
S127        S  0.18769660  0.99836497  0.07266862    -0.27800
H128        H  0.23276290  0.99799802  0.05419479     0.08300
H129        H  0.29968382  0.45614773  0.03533866     0.26800
H130        H  0.22993140  0.51909387  0.90794991     0.21600
H131        H  0.17984731  0.01621339  0.06601130     0.26900
H132        H  0.26807379  0.05339658  0.01453467     0.15700
C133        C  0.45623920  0.08037307  0.81366416    -0.11600
C134        C  0.43217890  0.07810295  0.81699087     0.15000
C135        C  0.42311903  0.08747398  0.79042230     0.01900
C136        C  0.43815826  0.09843819  0.76092706    -0.15900
C137        C  0.46199868  0.10004129  0.75710934    -0.10700
C138        C  0.47096284  0.09072210  0.78399670     0.08600
C139        C  0.41672916  0.06432702  0.84758892     0.09600
S140        S  0.39258643  0.08581569  0.79231286    -0.25000
H141        H  0.43104448  0.10549856  0.74059526     0.19900
S142        S  0.99996598  0.08943371  0.78105355    -0.30700
H143        H  0.46312611  0.07294700  0.83383142     0.10200
C144        C  0.40555018  0.03765883  0.85011826     0.03400
C145        C  0.39401675  0.02538185  0.88108864    -0.13000
C146        C  0.39323839  0.03912491  0.90989044    -0.08700
C147        C  0.40267758  0.06570762  0.90616126     0.06900
C148        C  0.41470393  0.07802468  0.87535039    -0.13800
S149        S  0.40665891  0.01930560  0.81407363    -0.30700
H150        H  0.38660242  0.00504482  0.88325433     0.11100
S151        S  0.39981489  0.08502958  0.93925767    -0.27800
H152        H  0.42282219  0.09847977  0.87312242     0.08300
H153        H  0.99540872  0.08029846  0.74692707     0.26800
H154        H  0.39169782  0.49520088  0.82916853     0.21600
H155        H  0.37510141  0.06620202  0.94919129     0.26900
H156        H  0.38031642  0.06418549  0.81354760     0.15700
C157        C  0.07074374  0.40923742  0.79737625    -0.11600
C158        C  0.06138497  0.42086721  0.81971121     0.15000
C159        C  0.03803400  0.41963378  0.81192611     0.01900
C160        C  0.02449220  0.40665352  0.78235550    -0.15900
C161        C  0.03402233  0.39542737  0.75952232    -0.10700
C162        C  0.05726250  0.39640404  0.76755817     0.08600
C163        C  0.07610990  0.43392360  0.85114169     0.09600
S164        S  0.02476048  0.43472181  0.83820291    -0.25000
H165        H  0.00688171  0.40633252  0.77631905     0.19900
S166        S  0.07020317  0.38091646  0.74158445    -0.30700
H167        H  0.08851680  0.40990399  0.80346893     0.10200
C168        C  0.06830295  0.42290416  0.88404585     0.03400
C169        C  0.08134126  0.43699779  0.91341756    -0.13000
C170        C  0.10216616  0.46203526  0.91071377    -0.08700
C171        C  0.11084715  0.47231091  0.87728469     0.06900
C172        C  0.09759762  0.45827399  0.84805728    -0.13800
S173        S  0.04137859  0.39104492  0.88861791    -0.30700
H174        H  0.07460231  0.42876908  0.93862781     0.11100
S175        S  0.13876848  0.00294536  0.87000779    -0.27800
H176        H  0.10383866  0.46653855  0.82270930     0.08300
H177        H  0.04637930  0.36033973  0.73177703     0.26800
H178        H  0.04134007  0.39027664  0.92489592     0.21600
H179        H  0.15316585  0.00002344  0.89625216     0.26900
H180        H  0.04814307  0.45529437  0.84927902     0.15700
C181        C  0.47386467  0.25882722  0.66534393    -0.11600
C182        C  0.49609164  0.25917748  0.67636503     0.15000
C183        C  0.01761111  0.28256383  0.68582610     0.01900
C184        C  0.01663575  0.30508031  0.68342238    -0.15900
C185        C  0.49445100  0.30482769  0.67239866    -0.10700
C186        C  0.47288129  0.28139727  0.66296552     0.08600
C187        C  0.49701266  0.23525869  0.67511800     0.09600
S188        S  0.04691733  0.28496035  0.70082435    -0.25000
H189        H  0.03330224  0.32298542  0.69065531     0.19900
S190        S  0.44428446  0.27927018  0.64555770    -0.30700
H191        H  0.45745888  0.24092849  0.65745237     0.10200
C192        C  0.48586299  0.21660400  0.70111457     0.03400
C193        C  0.48767565  0.19443179  0.69903784    -0.13000
C194        C  0.00011396  0.19050715  0.67122777    -0.08700
C195        C  0.01086710  0.20901661  0.64492222     0.06900
C196        C  0.00949844  0.23133334  0.64738771    -0.13800
S197        S  0.46986904  0.22135112  0.73720153    -0.30700
H198        H  0.47936410  0.18005846  0.71901363     0.11100
S199        S  0.02683347  0.20544464  0.60790848    -0.27800
H200        H  0.01800233  0.24567550  0.62736001     0.08300
H201        H  0.45682525  0.30243972  0.62731264     0.26800
H202        H  0.46266566  0.19806104  0.75380308     0.21600
H203        H  0.01136088  0.17886792  0.60509525     0.26900
H204        H  0.03575955  0.26064855  0.71598919     0.15700
C205        C  0.01531425  0.48289392  0.64313536    -0.11600
C206        C  0.00088480  0.48746049  0.66726237     0.15000
C207        C  0.48494652  0.46793635  0.69036432     0.01900
C208        C  0.48463149  0.44470158  0.68976803    -0.15900
C209        C  0.49923594  0.44001367  0.66579369    -0.10700
C210        C  0.01436036  0.45937848  0.64167791     0.08600
C211        C  0.00205915  0.01242584  0.66741193     0.09600
S212        S  0.46446224  0.47132425  0.72108566    -0.25000
H213        H  0.47277243  0.43016175  0.70820408     0.19900
S214        S  0.03203781  0.45527054  0.60736246    -0.30700
H215        H  0.02685079  0.99767083  0.62547394     0.10200
C216        C  0.01432747  0.03035135  0.69400490     0.03400
C217        C  0.01480450  0.05371965  0.69282909    -0.13000
C218        C  0.00356977  0.05969122  0.66531464    -0.08700
C219        C  0.49258601  0.04212536  0.63771022     0.06900
C220        C  0.49158404  0.01860926  0.63939501    -0.13800
S221        S  0.02976292  0.02364975  0.72904888    -0.30700
H222        H  0.02369107  0.06725648  0.71367704     0.11100
S223        S  0.48066837  0.04885854  0.59882768    -0.27800
H224        H  0.48353313  0.50545659  0.61793138     0.08300
H225        H  0.01176659  0.43125323  0.59744998     0.26800
H226        H  0.03770793  0.04646056  0.74737902     0.21600
H227        H  0.50041312  0.07442057  0.59664371     0.26900
H228        H  0.46070546  0.48884342  0.70188918     0.15700
C229        C  0.06375495  0.13616999  0.45603916    -0.11600
C230        C  0.07999220  0.15164219  0.48248210     0.15000
C231        C  0.10665999  0.16483749  0.47672183     0.01900
C232        C  0.11633725  0.16172414  0.44528898    -0.15900
C233        C  0.09996568  0.14639243  0.41887467    -0.10700
C234        C  0.07335852  0.13372003  0.42436208     0.08600
C235        C  0.06845335  0.15116951  0.51665875     0.09600
S236        S  0.12932034  0.18573369  0.50841585    -0.25000
H237        H  0.13675078  0.17132170  0.44139434     0.19900
S238        S  0.05081961  0.11200768  0.39326557    -0.30700
H239        H  0.04338507  0.12534218  0.46044131     0.10200
C240        C  0.04931884  0.15783462  0.52037682     0.03400
C241        C  0.03654095  0.15368475  0.55207440    -0.13000
C242        C  0.04271161  0.14340287  0.58044497    -0.08700
C243        C  0.06230963  0.13733119  0.57683649     0.06900
C244        C  0.07490844  0.14132928  0.54522148    -0.13800
S245        S  0.04144976  0.17205698  0.48497401    -0.30700
H246        H  0.02163692  0.15849531  0.55483562     0.11100
S247        S  0.07084281  0.12259035  0.61067754    -0.27800
H248        H  0.08919151  0.13563573  0.54241392     0.08300
H249        H  0.05914074  0.13019293  0.36668887     0.26800
H250        H  0.02136266  0.17317154  0.50144936     0.21600
H251        H  0.04553532  0.10542524  0.62015362     0.26900
H252        H  0.11293418  0.19287868  0.52412381     0.15700
C253        C  0.13826408  0.07574730  0.12173131    -0.11600
C254        C  0.14755372  0.06933784  0.15097412     0.15000
C255        C  0.15413631  0.05004642  0.14797309     0.01900
C256        C  0.15028748  0.03708453  0.11653913    -0.15900
C257        C  0.14080396  0.04343274  0.08741504    -0.10700
C258        C  0.13489056  0.06317123  0.09022168     0.08600
C259        C  0.14693539  0.08082380  0.18477543     0.09600
S260        S  0.16765145  0.04119261  0.18312864    -0.25000
H261        H  0.15496976  0.02201115  0.11472798     0.19900
S262        S  0.12101430  0.07189834  0.05543474    -0.30700
H263        H  0.13243009  0.08993988  0.12386833     0.10200
C264        C  0.15914485  0.10752417  0.18981844     0.03400
C265        C  0.15503998  0.11727561  0.22058663    -0.13000
C266        C  0.13952994  0.10092665  0.24681172    -0.08700
C267        C  0.12794580  0.07429231  0.24213294     0.06900
C268        C  0.13169390  0.06457127  0.21133031    -0.13800
S269        S  0.18039889  0.12925111  0.15750969    -0.30700
H270        H  0.16398176  0.13766070  0.22436932     0.11100
S271        S  0.10687754  0.05173813  0.27365631    -0.27800
H272        H  0.12183722  0.04413109  0.20751666     0.08300
H273        H  0.10388971  0.04662574  0.04552756     0.26800
H274        H  0.18810346  0.15186446  0.17623414     0.21600
H275        H  0.09395705  0.06510835  0.28026937     0.26900
H276        H  0.17929210  0.06511260  0.19956209     0.15700
C277        C  0.43759635  0.36098552  0.45279714    -0.11600
C278        C  0.42138144  0.34841178  0.48074598     0.15000
C279        C  0.39484437  0.33857330  0.47660536     0.01900
C280        C  0.38546655  0.34283102  0.44571874    -0.15900
C281        C  0.40181468  0.35584595  0.41811786    -0.10700
C282        C  0.42815524  0.36462527  0.42166419     0.08600
C283        C  0.43311319  0.34922959  0.51493375     0.09600
S284        S  0.37195535  0.32044341  0.50969402    -0.25000
H285        H  0.36523472  0.33581857  0.44312684     0.19900
S286        S  0.45103642  0.38245475  0.38850232    -0.30700
H287        H  0.45798948  0.36920768  0.45580922     0.10200
C288        C  0.45057397  0.34044705  0.51974638     0.03400
C289        C  0.46318713  0.34443929  0.55162613    -0.13000
C290        C  0.45847591  0.35669290  0.57898219    -0.08700
C291        C  0.44079433  0.36516479  0.57416012     0.06900
C292        C  0.42840858  0.36135115  0.54245075    -0.13800
S293        S  0.45628062  0.32349480  0.48578096    -0.30700
H294        H  0.47659490  0.33774298  0.55546820     0.11100
S295        S  0.43451954  0.38258561  0.60665180    -0.27800
H296        H  0.41560774  0.36882639  0.53876676     0.08300
H297        H  0.44079876  0.39826510  0.38172548     0.26800
H298        H  0.47597062  0.32177824  0.50250601     0.21600
H299        H  0.46031138  0.39821440  0.61546302     0.26900
H300        H  0.38642644  0.31072189  0.52482381     0.15700
C301        C  0.47163170  0.48314390  0.36228863    -0.11600
C302        C  0.48925720  0.48888401  0.33565781     0.15000
C303        C  0.48474267  0.47025254  0.31047201     0.01900
C304        C  0.46181162  0.44703039  0.31105826    -0.15900
C305        C  0.44373639  0.44139580  0.33728382    -0.10700
C306        C  0.44937019  0.45946632  0.36399704     0.08600
C307        C  0.01229606  0.01436034  0.33574932     0.09600
S308        S  0.00752942  0.47472904  0.27732801    -0.25000
H309        H  0.45814194  0.43324224  0.29082855     0.19900
S310        S  0.42992942  0.45333417  0.40193414    -0.30700
H311        H  0.47553428  0.99703330  0.38265144     0.10200
C312        C  0.01703573  0.03249222  0.30981712     0.03400
C313        C  0.03966396  0.05608550  0.31089441    -0.13000
C314        C  0.05734352  0.06214102  0.33783529    -0.08700
C315        C  0.05155967  0.04440256  0.36496524     0.06900
C316        C  0.02943473  0.02061742  0.36320012    -0.13800
S317        S  0.49404203  0.02589707  0.27592084    -0.30700
H318        H  0.04372984  0.06973900  0.29040109     0.11100
S319        S  0.07076592  0.05109606  0.40332152    -0.27800
H320        H  0.02542433  0.50677457  0.38372296     0.08300
H321        H  0.42581663  0.42852094  0.40677445     0.26800
H322        H  0.00884027  0.04838010  0.25693088     0.21600
H323        H  0.07567412  0.07629697  0.40664995     0.26900
H324        H  0.02943311  0.49134699  0.29631998     0.15700
C325        C  0.26384125  0.28561944  0.32769981    -0.11600
C326        C  0.26377131  0.26255122  0.33045168     0.15000
C327        C  0.28716918  0.26281641  0.33250544     0.01900
C328        C  0.31005681  0.28619288  0.33207822    -0.15900
C329        C  0.31018068  0.30938863  0.32957195    -0.10700
C330        C  0.28665298  0.30895145  0.32704323     0.08600
C331        C  0.23887557  0.23868280  0.33082486     0.09600
S332        S  0.28920595  0.23419464  0.33636804    -0.25000
H333        H  0.32792746  0.28628213  0.33424405     0.19900
S334        S  0.28416019  0.33722871  0.32207116    -0.30700
H335        H  0.24588578  0.28540589  0.32586020     0.10200
C336        C  0.22842901  0.22495494  0.36153679     0.03400
C337        C  0.20468776  0.20245339  0.36050192    -0.13000
C338        C  0.19088137  0.19377386  0.32954715    -0.08700
C339        C  0.20124859  0.20789260  0.29895371     0.06900
C340        C  0.22516673  0.23006119  0.29987246    -0.13800
S341        S  0.24505364  0.23637585  0.40209399    -0.30700
H342        H  0.19664126  0.19169798  0.38398025     0.11100
S343        S  0.18564781  0.19758494  0.25776152    -0.27800
H344        H  0.23322474  0.24067851  0.27626186     0.08300
H345        H  0.30582328  0.35036077  0.30114150     0.26800
H346        H  0.22652129  0.21683620  0.42285124     0.21600
H347        H  0.16536346  0.20127190  0.26743763     0.26900
H348        H  0.26593568  0.21755101  0.32019242     0.15700
C349        C  0.35121827  0.45735458  0.15233190    -0.11600
C350        C  0.36215269  0.44170367  0.15470283     0.15000
C351        C  0.37298900  0.43758019  0.12481133     0.01900
C352        C  0.37214017  0.44856134  0.09347332    -0.15900
C353        C  0.36176964  0.46463570  0.09129918    -0.10700
C354        C  0.35111840  0.46902049  0.12110677     0.08600
C355        C  0.36109447  0.42897268  0.18801474     0.09600
S356        S  0.38927245  0.41951399  0.12522111    -0.25000
H357        H  0.38084889  0.44554395  0.07082682     0.19900
S358        S  0.33626307  0.98850626  0.12048720    -0.30700
H359        H  0.34250964  0.46034751  0.17496662     0.10200
C360        C  0.37324579  0.44298880  0.21810564     0.03400
C361        C  0.37293961  0.42993766  0.24822592    -0.13000
C362        C  0.36140631  0.40323020  0.24869175    -0.08700
C363        C  0.34884553  0.38922578  0.21878550     0.07500
C364        C  0.34853959  0.40220653  0.18906606    -0.13800
S365        S  0.39082534  0.47746366  0.21760618    -0.30700
H366        H  0.38289066  0.44061632  0.27102777     0.11100
S367        S  0.33311680  0.35489457  0.21648151    -0.27800
H368        H  0.33893068  0.39134810  0.16617191     0.08300
H369        H  0.32822758  0.98366724  0.08588041     0.26800
H370        H  0.39865022  0.48095721  0.25233774     0.21600
H371        H  0.32871201  0.35018456  0.25195319     0.26900
H372        H  0.39901598  0.42649672  0.15889586     0.15700
O373        O  0.41765254  0.89842852  0.31791317    -0.74600
O374        O  0.35425611  0.83514733  0.31557602    -0.74600
O375        O  0.37630961  0.87809235  0.27616240    -0.74700
O376        O  0.39639806  0.85604718  0.35709516    -0.74700
O377        O  0.37778289  0.87217664  0.39014497    -0.74700
O378        O  0.35931841  0.89585318  0.30929569    -0.74600
O379        O  0.33645117  0.85250075  0.34780798    -0.74600
O380        O  0.39980112  0.91495265  0.35150443    -0.74700
Ni381      Ni  0.38667371  0.86619119  0.31547373     1.25400
Ni382      Ni  0.36759800  0.88433556  0.35086105     1.25400
C383        C  0.41922548  0.91705235  0.33560870     0.87600
C384        C  0.33477353  0.83357738  0.33090371     0.87500
C385        C  0.36540962  0.89143237  0.27949792     0.87500
C386        C  0.39114902  0.86128312  0.38694503     0.87700
O387        O  0.08337112  0.60494932  0.31879645    -0.74600
O388        O  0.14679243  0.66787200  0.31489898    -0.74600
O389        O  0.12398869  0.62503403  0.27562107    -0.74700
O390        O  0.10560176  0.64726991  0.35792283    -0.74700
O391        O  0.12409454  0.63049432  0.38999062    -0.74700
O392        O  0.14176568  0.60749124  0.30767135    -0.74600
O393        O  0.16493252  0.65069118  0.34685046    -0.74600
O394        O  0.10167367  0.58807346  0.35090661    -0.74700
Ni395      Ni  0.11439738  0.63700185  0.31563678     1.25400
Ni396      Ni  0.13389559  0.61870578  0.34995416     1.25400
C397        C  0.08199350  0.58624610  0.33602040     0.87600
C398        C  0.16633309  0.66958818  0.33016987     0.87500
C399        C  0.13516570  0.61190806  0.27819861     0.87500
C400        C  0.11081556  0.64151296  0.38745518     0.87700
O401        O  0.47928797  0.89594887  0.68212960    -0.74600
O402        O  0.47656176  0.83129898  0.68435691    -0.74600
O403        O  0.49586221  0.87304943  0.72638113    -0.74700
O404        O  0.45975793  0.85485203  0.64041463    -0.74700
O405        O  0.99662175  0.87134852  0.61195572    -0.74700
O406        O  0.03287823  0.88999499  0.69826693    -0.74600
O407        O  0.01374685  0.84849048  0.65657718    -0.74600
O408        O  0.01614740  0.91267708  0.65393073    -0.74700
Ni409      Ni  0.47655061  0.86305623  0.68434792     1.25400
Ni410      Ni  0.01613574  0.88112328  0.65414603     1.25400
C411        C  0.49813218  0.91499000  0.66733837     0.87600
C412        C  0.49481880  0.82933307  0.67087282     0.87500
C413        C  0.02028858  0.88521524  0.72649857     0.87500
C414        C  0.47225090  0.86089777  0.61205183     0.87700
O415        O  0.02086194  0.60312874  0.68294535    -0.74600
O416        O  0.01963670  0.66582632  0.68484800    -0.74600
O417        O  0.00103954  0.62387402  0.72594799    -0.74700
O418        O  0.03971072  0.64456938  0.64204901    -0.74700
O419        O  0.50363118  0.62671664  0.61156391    -0.74700
O420        O  0.46485586  0.60546621  0.69576850    -0.74600
O421        O  0.48332073  0.64733755  0.65474496    -0.74600
O422        O  0.48484785  0.58509385  0.65243173    -0.74700
Ni423      Ni  0.02159072  0.63511149  0.68505666     1.25400
Ni424      Ni  0.48288583  0.61559963  0.65254872     1.25400
C425        C  0.00320989  0.58386995  0.66682635     0.87600
C426        C  0.00119047  0.66677127  0.67012402     0.87500
C427        C  0.47666541  0.61049730  0.72474195     0.87500
C428        C  0.02805552  0.63821546  0.61299030     0.87700
O429        O  0.41531235  0.52017948  0.01338138    -0.74600
O430        O  0.35232693  0.52034800  0.01685353    -0.74600
O431        O  0.37605036  0.50256633  0.05835841    -0.74700
O432        O  0.39198289  0.53820247  0.97205641    -0.74700
O433        O  0.37230531  0.00102837  0.94399806    -0.74700
O434        O  0.35731608  0.96532790  0.03027635    -0.74600
O435        O  0.33300004  0.98299160  0.98925814    -0.74600
O436        O  0.39608636  0.98306726  0.98509494    -0.74700
Ni437      Ni  0.38453425  0.52164182  0.01615030     1.25400
Ni438      Ni  0.36390701  0.98179338  0.98612884     1.25400
C439        C  0.41610033  0.50145420  0.99931992     0.87600
C440        C  0.33223307  0.50163950  0.00372886     0.87500
C441        C  0.36472214  0.97813293  0.05841504     0.87500
C442        C  0.38505947  0.52564203  0.94372076     0.87700
O443        O  0.08440614  0.98349541  0.01422536    -0.74600
O444        O  0.14898720  0.98658621  0.01463951    -0.74600
O445        O  0.12552930  0.00433160  0.05648657    -0.74700
O446        O  0.10756185  0.96570701  0.97226386    -0.74700
O447        O  0.12402103  0.50171030  0.94174606    -0.74700
O448        O  0.14253672  0.54050280  0.02571117    -0.74600
O449        O  0.16584203  0.52249644  0.98336574    -0.74600
O450        O  0.10133673  0.51971676  0.98381548    -0.74700
Ni451      Ni  0.11610335  0.98373908  0.01545667     1.25400
Ni452      Ni  0.13413653  0.52239293  0.98258227     1.25400
C453        C  0.08230262  0.50124854  0.99907971     0.87600
C454        C  0.16813370  0.50523043  0.99929374     0.87500
C455        C  0.13637506  0.52887767  0.05480549     0.87500
C456        C  0.11213719  0.97725200  0.94313594     0.87700
C457        C  0.01661726  0.98938411  0.02469411    -0.11600
C458        C  0.01026747  0.49890598  0.99551470     0.15000
C459        C  0.02770570  0.50925483  0.96788012     0.01900
C460        C  0.05081938  0.50939603  0.96961450    -0.15900
C461        C  0.05748013  0.50032205  0.99889324    -0.10700
C462        C  0.04015584  0.99047197  0.02705372     0.08600
C463        C  0.48589535  0.49896063  0.99601156     0.09600
S464        S  0.02208204  0.52322799  0.93016404    -0.25000
H465        H  0.06384163  0.51694593  0.94804908     0.19900
S466        S  0.04751385  0.98064973  0.06730090    -0.30700
H467        H  0.50351299  0.98187225  0.04611828     0.10200
C468        C  0.46562953  0.98375319  0.97330904     0.03400
C469        C  0.44317302  0.98505981  0.97474976    -0.13000
C470        C  0.44020414  0.50066528  0.99930915    -0.08700
C471        C  0.46019076  0.51469906  0.02315752     0.06900
C472        C  0.48287620  0.51414545  0.02064405    -0.13800
S473        S  0.46808574  0.96222244  0.94335112    -0.30700
H474        H  0.42796101  0.97396526  0.95674627     0.11100
S475        S  0.45767950  0.53239570  0.05884204    -0.27800
H476        H  0.99818959  0.52524185  0.03862658     0.08300
H477        H  0.07297217  0.00070933  0.06840730     0.26800
H478        H  0.44418800  0.95316857  0.92750085     0.21600
H479        H  0.43328381  0.51277805  0.06864133     0.26900
H480        H  0.00720760  0.53189653  0.94668168     0.15700
C481        C  0.26178905  0.98155170  0.00325443    -0.11600
C482        C  0.26322612  0.50529654  0.00073077     0.15000
C483        C  0.28729730  0.52775657  0.00067055     0.01900
C484        C  0.30935883  0.52590378  0.00208279    -0.15900
C485        C  0.30806440  0.50212343  0.00425569    -0.10700
C486        C  0.28382882  0.97968362  0.00542849     0.08600
C487        C  0.23920642  0.50592853  0.99966224     0.09600
S488        S  0.29128145  0.55931590  0.99848846    -0.25000
H489        H  0.32773793  0.54325395  0.00112925     0.19900
S490        S  0.27954002  0.94824696  0.01126411    -0.30700
H491        H  0.24328879  0.96433252  0.00401190     0.10200
C492        C  0.23000895  0.01095278  0.96912879     0.03400
C493        C  0.20698230  0.01122368  0.96976121    -0.13000
C494        C  0.19309064  0.50657007  0.00027815    -0.08700
C495        C  0.20284243  0.50232218  0.03113558     0.06900
C496        C  0.22551377  0.50164518  0.03037219    -0.13800
S497        S  0.24720368  0.01622062  0.92911934    -0.30700
H498        H  0.19947642  0.01452260  0.94614548     0.11100
S499        S  0.18792103  0.49887337  0.07254349    -0.27800
H500        H  0.23288711  0.49829086  0.05410910     0.08300
H501        H  0.29960166  0.95603790  0.03512522     0.26800
H502        H  0.23065688  0.02061425  0.90855046     0.21600
H503        H  0.18010911  0.51672573  0.06568735     0.26900
H504        H  0.26810090  0.55342523  0.01421076     0.15700
C505        C  0.45617259  0.58031837  0.81369126    -0.11600
C506        C  0.43218511  0.57821366  0.81707618     0.15000
C507        C  0.42319723  0.58767373  0.79052891     0.01900
C508        C  0.43823747  0.59857682  0.76101230    -0.15900
C509        C  0.46200134  0.60001749  0.75714601    -0.10700
C510        C  0.47088337  0.59058808  0.78399289     0.08600
C511        C  0.41670770  0.56446200  0.84767602     0.09600
S512        S  0.39274750  0.58618905  0.79246935    -0.25000
H513        H  0.43118541  0.60571562  0.74070603     0.19900
S514        S  0.99974853  0.58904931  0.78094524    -0.30700
H515        H  0.46299814  0.57281201  0.83382519     0.10200
C516        C  0.40548809  0.53778959  0.85020412     0.03400
C517        C  0.39397341  0.52552457  0.88118517    -0.13000
C518        C  0.39323638  0.53927598  0.91000264    -0.08700
C519        C  0.40268357  0.56585999  0.90626910     0.06900
C520        C  0.41470635  0.57817129  0.87544676    -0.13800
S521        S  0.40651961  0.51940974  0.81413920    -0.30700
H522        H  0.38653920  0.50518175  0.88334281     0.11100
S523        S  0.39982665  0.58518218  0.93937028    -0.27800
H524        H  0.42284442  0.59863116  0.87321983     0.08300
H525        H  0.99514931  0.58001552  0.74676835     0.26800
H526        H  0.39188651  0.99509180  0.82911142     0.21600
H527        H  0.37512281  0.56634751  0.94933116     0.26900
H528        H  0.38038031  0.56449165  0.81356960     0.15700
C529        C  0.07060106  0.90917960  0.79752456    -0.11600
C530        C  0.06133911  0.92101484  0.81965716     0.15000
C531        C  0.03809916  0.91995672  0.81167218     0.01900
C532        C  0.02454720  0.90691423  0.78214235    -0.15900
C533        C  0.03397464  0.89546870  0.75952430    -0.10700
C534        C  0.05712106  0.89630191  0.76772275     0.08600
C535        C  0.07600482  0.93403992  0.85114322     0.09600
S536        S  0.02499136  0.93534625  0.83764934    -0.25000
H537        H  0.00701352  0.90671325  0.77595631     0.19900
S538        S  0.06993662  0.88058535  0.74197397    -0.30700
H539        H  0.08829231  0.90971719  0.80376742     0.10200
C540        C  0.06809283  0.92300793  0.88402311     0.03400
C541        C  0.08111186  0.93704496  0.91344349    -0.13000
C542        C  0.10202779  0.96203545  0.91081175    -0.08700
C543        C  0.11079011  0.97232963  0.87741181     0.06900
C544        C  0.09755851  0.95835182  0.84813588    -0.13800
S545        S  0.04105923  0.89120435  0.88849752    -0.30700
H546        H  0.07429370  0.92881405  0.93863205     0.11100
S547        S  0.13872901  0.50298119  0.86977790    -0.27800
H548        H  0.10387561  0.96662777  0.82280835     0.08300
H549        H  0.04608190  0.86013374  0.73198978     0.26800
H550        H  0.04117232  0.89025905  0.92475979     0.21600
H551        H  0.15322588  0.50016209  0.89597156     0.26900
H552        H  0.04845626  0.95590915  0.84850682     0.15700
C553        C  0.47386927  0.75876811  0.66624474    -0.11600
C554        C  0.49636926  0.75927111  0.67621473     0.15000
C555        C  0.01812447  0.78278823  0.68458079     0.01900
C556        C  0.01706223  0.80526564  0.68223436    -0.15900
C557        C  0.49459295  0.80486426  0.67226735    -0.10700
C558        C  0.47281087  0.78129726  0.66385965     0.08600
C559        C  0.49723581  0.73532336  0.67501730     0.09600
S560        S  0.04786051  0.78541753  0.69798386    -0.25000
H561        H  0.03389843  0.82326248  0.68868028     0.19900
S562        S  0.44379049  0.77890584  0.64770764    -0.30700
H563        H  0.45727075  0.74075772  0.65916645     0.10200
C564        C  0.48737151  0.71737152  0.70201730     0.03400
C565        C  0.48914922  0.69517735  0.69995961    -0.13000
C566        C  0.00018229  0.69048165  0.67113625    -0.08700
C567        C  0.00959055  0.70826347  0.64382752     0.06900
C568        C  0.00834264  0.73064720  0.64628929    -0.13800
S569        S  0.47303539  0.72303554  0.73928631    -0.30700
H570        H  0.48185847  0.68136697  0.72070715     0.11100
S571        S  0.02388607  0.70379559  0.60562324    -0.27800
H572        H  0.01586769  0.74445603  0.62550699     0.08300
H573        H  0.45590510  0.80170971  0.62860649     0.26800
H574        H  0.46626760  0.70000002  0.75632342     0.21600
H575        H  0.00814042  0.67720507  0.60388407     0.26900
H576        H  0.03721700  0.76130654  0.71363282     0.15700
C577        C  0.01503554  0.98284286  0.64359912    -0.11600
C578        C  0.00048836  0.98729743  0.66765625     0.15000
C579        C  0.48455159  0.96771613  0.69068676     0.01900
C580        C  0.48431850  0.94451781  0.69004983    -0.15900
C581        C  0.49902075  0.93993171  0.66611301    -0.10700
C582        C  0.01417818  0.95937453  0.64210661     0.08600
C583        C  0.00255354  0.51263133  0.66702851     0.09600
S584        S  0.46397924  0.97099346  0.72136776    -0.25000
H585        H  0.47244491  0.92992726  0.70841521     0.19900
S586        S  0.03203009  0.95543662  0.60788222    -0.30700
H587        H  0.02711530  0.49767142  0.62493687     0.10200
C588        C  0.01469320  0.53045933  0.69376811     0.03400
C589        C  0.01508285  0.55378457  0.69273837    -0.13000
C590        C  0.00389701  0.55981119  0.66522612    -0.08700
C591        C  0.49311389  0.54238874  0.63743390     0.06900
C592        C  0.49218782  0.51890554  0.63897206    -0.13800
S593        S  0.03005822  0.52368412  0.72883127    -0.30700
H594        H  0.02384733  0.56723776  0.71370883     0.11100
S595        S  0.48133119  0.54925882  0.59852798    -0.27800
H596        H  0.48282102  0.00507677  0.61846652     0.08300
H597        H  0.01181473  0.93145982  0.59772366     0.26800
H598        H  0.03773842  0.54633993  0.74742184     0.21600
H599        H  0.50094663  0.57489241  0.59668098     0.26900
H600        H  0.46017244  0.98847794  0.70216548     0.15700
C601        C  0.06388127  0.63581227  0.45630329    -0.11600
C602        C  0.08012785  0.65134276  0.48269719     0.15000
C603        C  0.10678632  0.66461246  0.47687476     0.01900
C604        C  0.11645084  0.66153505  0.44540774    -0.15900
C605        C  0.10006883  0.64615908  0.41902888    -0.10700
C606        C  0.07346797  0.63339256  0.42459598     0.08600
C607        C  0.06860675  0.65092365  0.51686119     0.09600
S608        S  0.12944596  0.68556665  0.50852612    -0.25000
H609        H  0.13686148  0.67120009  0.44145508     0.19900
S610        S  0.05092672  0.61162549  0.39354683    -0.30700
H611        H  0.04351971  0.62494010  0.46075668     0.10200
C612        C  0.04953915  0.65768142  0.52053659     0.03400
C613        C  0.03677661  0.65361549  0.55222769    -0.13000
C614        C  0.04289761  0.64332637  0.58063459    -0.08700
C615        C  0.06243290  0.63715869  0.57706939     0.06900
C616        C  0.07502019  0.64107658  0.54545600    -0.13800
S617        S  0.04173533  0.67191110  0.48507737    -0.30700
H618        H  0.02191684  0.65849194  0.55495366     0.11100
S619        S  0.07090254  0.62240717  0.61096754    -0.27800
H620        H  0.08926135  0.63532473  0.54267850     0.08300
H621        H  0.05915801  0.62979756  0.36696008     0.26800
H622        H  0.02170512  0.67314341  0.50153029     0.21600
H623        H  0.04558483  0.60531931  0.62045907     0.26900
H624        H  0.11303002  0.69265976  0.52426572     0.15700
C625        C  0.13830593  0.57589437  0.12152324    -0.11600
C626        C  0.14766438  0.56951961  0.15073053     0.15000
C627        C  0.15431932  0.55028446  0.14766984     0.01900
C628        C  0.15045241  0.53732425  0.11623369    -0.15900
C629        C  0.14089742  0.54363212  0.08714897    -0.10700
C630        C  0.13493093  0.56333153  0.08999727     0.08600
C631        C  0.14704538  0.58096818  0.18456767     0.09600
S632        S  0.16795760  0.54150377  0.18275003    -0.25000
H633        H  0.15517787  0.52228568  0.11438979     0.19900
S634        S  0.12100485  0.57203481  0.05524619    -0.30700
H635        H  0.13242357  0.59004701  0.12370087     0.10200
C636        C  0.15915246  0.60766087  0.18962714     0.03400
C637        C  0.15505545  0.61735670  0.22045488    -0.13000
C638        C  0.13964100  0.60096433  0.24671141    -0.08700
C639        C  0.12815786  0.57433984  0.24201031     0.06900
C640        C  0.13189921  0.56467302  0.21115232    -0.13800
S641        S  0.18031374  0.62944701  0.15729334    -0.30700
H642        H  0.16395167  0.63773245  0.22427943     0.11100
S643        S  0.10724388  0.55171948  0.27358914    -0.27800
H644        H  0.12211513  0.54423666  0.20732797     0.08300
H645        H  0.10396990  0.54676894  0.04522295     0.26800
H646        H  0.18694785  0.65211054  0.17529169     0.21600
H647        H  0.09426110  0.56499679  0.28041514     0.26900
H648        H  0.17958321  0.56543566  0.19915146     0.15700
C649        C  0.43731468  0.86085021  0.45295157    -0.11600
C650        C  0.42110187  0.84846104  0.48097110     0.15000
C651        C  0.39458956  0.83879127  0.47687347     0.01900
C652        C  0.38524013  0.84299116  0.44591617    -0.15900
C653        C  0.40158974  0.85581532  0.41823022    -0.10700
C654        C  0.42790437  0.86446426  0.42177418     0.08600
C655        C  0.43285188  0.84927261  0.51514275     0.09600
S656        S  0.37169839  0.82097214  0.51010916    -0.25000
H657        H  0.36503165  0.83610206  0.44334801     0.19900
S658        S  0.45081232  0.88211316  0.38855592    -0.30700
H659        H  0.45769312  0.86894904  0.45593600     0.10200
C660        C  0.45008981  0.84021635  0.51998214     0.03400
C661        C  0.46277977  0.84421343  0.55180344    -0.13000
C662        C  0.45835608  0.85673953  0.57907648    -0.08700
C663        C  0.44089986  0.86549056  0.57422899     0.06900
C664        C  0.42842956  0.86166314  0.54258108    -0.13800
S665        S  0.45542127  0.82293297  0.48610804    -0.30700
H666        H  0.47602548  0.83731901  0.55566458     0.11100
S667        S  0.43505750  0.88329375  0.60660591    -0.27800
H668        H  0.41580093  0.86933931  0.53887072     0.08300
H669        H  0.44068728  0.89799605  0.38159523     0.26800
H670        H  0.47468576  0.82059812  0.50303785     0.21600
H671        H  0.46093392  0.89873929  0.61510659     0.26900
H672        H  0.38603643  0.81116014  0.52540086     0.15700
C673        C  0.47160288  0.98310037  0.36248126    -0.11600
C674        C  0.48912981  0.98897491  0.33567530     0.15000
C675        C  0.48458951  0.97040348  0.31037549     0.01900
C676        C  0.46169761  0.94713895  0.31099462    -0.15900
C677        C  0.44371132  0.94139256  0.33737839    -0.10700
C678        C  0.44941056  0.95936739  0.36423525     0.08600
C679        C  0.01245774  0.51422971  0.33573211     0.09600
S680        S  0.00731014  0.97499580  0.27707277    -0.25000
H681        H  0.45798441  0.93340434  0.29066320     0.19900
S682        S  0.43015318  0.95301638  0.40241415    -0.30700
H683        H  0.47552775  0.49714142  0.38234144     0.10200
C684        C  0.01724052  0.53234286  0.30976223     0.03400
C685        C  0.03987601  0.55592053  0.31085031    -0.13000
C686        C  0.05752315  0.56197799  0.33783376    -0.08700
C687        C  0.05171373  0.54424840  0.36497958     0.06900
C688        C  0.02956985  0.52047645  0.36321463    -0.13800
S689        S  0.49429292  0.52573374  0.27579350    -0.30700
H690        H  0.04397420  0.56956392  0.29032845     0.11100
S691        S  0.07090857  0.55094326  0.40334710    -0.27800
H692        H  0.02532827  0.00690965  0.38368510     0.08300
H693        H  0.42596966  0.92813873  0.40679053     0.26800
H694        H  0.00900632  0.54832977  0.25698807     0.21600
H695        H  0.07585511  0.57615833  0.40664460     0.26900
H696        H  0.02924513  0.99160236  0.29602021     0.15700
C697        C  0.26370476  0.78576860  0.32748096    -0.11600
C698        C  0.26361309  0.76269083  0.33025419     0.15000
C699        C  0.28699590  0.76293103  0.33233187     0.01900
C700        C  0.30989459  0.78629381  0.33193105    -0.15900
C701        C  0.31004559  0.80950328  0.32943647    -0.10700
C702        C  0.28653138  0.80909148  0.32685809     0.08600
C703        C  0.23871822  0.73882857  0.33068958     0.09600
S704        S  0.28899321  0.73428910  0.33623146    -0.25000
H705        H  0.32775424  0.78636146  0.33412632     0.19900
S706        S  0.28407455  0.83738927  0.32188789    -0.30700
H707        H  0.24575810  0.78557066  0.32562053     0.10200
C708        C  0.22826070  0.72519945  0.36146476     0.03400
C709        C  0.20457806  0.70262889  0.36047581    -0.13000
C710        C  0.19083942  0.69379461  0.32949831    -0.08700
C711        C  0.20119797  0.70782991  0.29884492     0.06900
C712        C  0.22506499  0.73006198  0.29971947    -0.13800
S713        S  0.24480537  0.73683002  0.40203276    -0.30700
H714        H  0.19652367  0.69193986  0.38399933     0.11100
S715        S  0.18565137  0.69733134  0.25764801    -0.27800
H716        H  0.23313328  0.74060502  0.27605993     0.08300
H717        H  0.30579377  0.85054985  0.30106684     0.26800
H718        H  0.22631682  0.71729381  0.42283880     0.21600
H719        H  0.16528583  0.70093658  0.26715502     0.26900
H720        H  0.26573810  0.71766327  0.32000657     0.15700
C721        C  0.35106430  0.95734789  0.15228132    -0.11600
C722        C  0.36212658  0.94181732  0.15476321     0.15000
C723        C  0.37309830  0.93777433  0.12495329     0.01900
C724        C  0.37225368  0.94871179  0.09357667    -0.15900
C725        C  0.36173046  0.96464672  0.09128566    -0.10700
C726        C  0.35094754  0.96895646  0.12101221     0.08600
C727        C  0.36103610  0.92909069  0.18808411     0.09600
S728        S  0.38951642  0.91983877  0.12551036    -0.25000
H729        H  0.38106469  0.94576114  0.07099279     0.19900
S730        S  0.33662942  0.48874821  0.12074995    -0.30700
H731        H  0.34225501  0.96027788  0.17485946     0.10200
C732        C  0.37313312  0.94310384  0.21819712     0.03400
C733        C  0.37286896  0.93005203  0.24829547    -0.13000
C734        C  0.36139718  0.90334873  0.24872680    -0.08700
C735        C  0.34883881  0.88934606  0.21881922     0.07500
C736        C  0.34852464  0.90232708  0.18910715    -0.13800
S737        S  0.39057394  0.97757974  0.21775888    -0.30700
H738        H  0.38279616  0.94073056  0.27111149     0.11100
S739        S  0.33310454  0.85501522  0.21650976    -0.27800
H740        H  0.33894507  0.89147486  0.16620087     0.08300
H741        H  0.32845333  0.48390575  0.08619881     0.26800
H742        H  0.39828650  0.98106881  0.25253836     0.21600
H743        H  0.32869564  0.85030358  0.25198024     0.26900
H744        H  0.39911624  0.92679007  0.15925343     0.15700
O745        O  0.91770539  0.39842419  0.31782845    -0.74600
O746        O  0.85437037  0.33507633  0.31559809    -0.74600
O747        O  0.87633701  0.37800008  0.27613116    -0.74700
O748        O  0.89655685  0.35606248  0.35701952    -0.74700
O749        O  0.87793653  0.37216543  0.39011154    -0.74700
O750        O  0.85931858  0.39573017  0.30927187    -0.74600
O751        O  0.83655569  0.35240332  0.34786330    -0.74600
O752        O  0.89983022  0.41491875  0.35142108    -0.74700
Ni753      Ni  0.88676153  0.36615466  0.31542984     1.25400
Ni754      Ni  0.86766736  0.38426749  0.35084101     1.25400
C755        C  0.91925870  0.41704431  0.33551535     0.87600
C756        C  0.83489237  0.33348187  0.33097340     0.87500
C757        C  0.86541398  0.39131625  0.27946971     0.87500
C758        C  0.89132761  0.36129939  0.38687690     0.87700
O759        O  0.58327479  0.10510287  0.31871144    -0.74600
O760        O  0.64681492  0.16795163  0.31485399    -0.74600
O761        O  0.62394397  0.12509510  0.27560383    -0.74700
O762        O  0.60556267  0.14745507  0.35778744    -0.74700
O763        O  0.62395010  0.13062372  0.38995887    -0.74700
O764        O  0.64161477  0.10749481  0.30775340    -0.74600
O765        O  0.66483343  0.15069676  0.34689958    -0.74600
O766        O  0.60149121  0.08818805  0.35091453    -0.74700
Ni767      Ni  0.61436158  0.13712474  0.31556099     1.25400
Ni768      Ni  0.63374659  0.11876768  0.34998350     1.25400
C769        C  0.58183905  0.08639192  0.33598865     0.87600
C770        C  0.66631685  0.16961446  0.33018115     0.87500
C771        C  0.63506598  0.11192180  0.27825025     0.87500
C772        C  0.61072028  0.14169125  0.38735102     0.87700
O773        O  0.97943445  0.39606278  0.68196075    -0.74600
O774        O  0.97650877  0.33133017  0.68436770    -0.74600
O775        O  0.99590317  0.37312212  0.72633348    -0.74700
O776        O  0.95983653  0.35491644  0.64033951    -0.74700
O777        O  0.49670779  0.37129090  0.61192281    -0.74700
O778        O  0.53292450  0.38999760  0.69824852    -0.74600
O779        O  0.51373423  0.34843446  0.65668365    -0.74600
O780        O  0.51628819  0.41268195  0.65375950    -0.74700
Ni781      Ni  0.97660429  0.36313496  0.68428121     1.25400
Ni782      Ni  0.51620166  0.38109429  0.65412005     1.25400
C783        C  0.99829391  0.41505404  0.66711497     0.87600
C784        C  0.99475628  0.32931584  0.67095684     0.87500
C785        C  0.52033093  0.38523779  0.72647354     0.87500
C786        C  0.97234206  0.36089145  0.61198923     0.87700
O787        O  0.52071490  0.10309289  0.68280608    -0.74600
O788        O  0.51961742  0.16586242  0.68471610    -0.74600
O789        O  0.50100738  0.12392072  0.72584495    -0.74700
O790        O  0.53957833  0.14454440  0.64187134    -0.74700
O791        O  0.00346683  0.12676010  0.61146003    -0.74700
O792        O  0.96479025  0.10550364  0.69574235    -0.74600
O793        O  0.98322565  0.14738554  0.65477523    -0.74600
O794        O  0.98468666  0.08510637  0.65233060    -0.74700
Ni795      Ni  0.52151138  0.13511504  0.68491155     1.25400
Ni796      Ni  0.98276660  0.11563766  0.65249334     1.25400
C797        C  0.50301165  0.08382965  0.66675267     0.87600
C798        C  0.50112482  0.16680502  0.67013685     0.87500
C799        C  0.97663274  0.11053686  0.72468873     0.87500
C800        C  0.52789277  0.13823807  0.61283383     0.87700
O801        O  0.91525835  0.02003807  0.01329200    -0.74600
O802        O  0.85233549  0.02032182  0.01673598    -0.74600
O803        O  0.87602170  0.00253429  0.05827846    -0.74700
O804        O  0.89197607  0.03807686  0.97192620    -0.74700
O805        O  0.87235510  0.50117012  0.94408721    -0.74700
O806        O  0.85739390  0.46538902  0.03028977    -0.74600
O807        O  0.83303876  0.48303591  0.98932489    -0.74600
O808        O  0.89618734  0.48323435  0.98513080    -0.74700
Ni809      Ni  0.88451599  0.02156161  0.01604034     1.25400
Ni810      Ni  0.86397766  0.48189899  0.98617972     1.25400
C811        C  0.91600867  0.00127962  0.99927480     0.87600
C812        C  0.83222262  0.00161483  0.00364800     0.87500
C813        C  0.86477351  0.47816383  0.05845335     0.87500
C814        C  0.88504023  0.02549965  0.94360681     0.87700
O815        O  0.58448689  0.48359935  0.01405063    -0.74600
O816        O  0.64909180  0.48675297  0.01450214    -0.74600
O817        O  0.62562078  0.50451537  0.05628129    -0.74700
O818        O  0.60767449  0.46579779  0.97215691    -0.74700
O819        O  0.62394084  0.00166143  0.94194035    -0.74700
O820        O  0.64248717  0.04035138  0.02598572    -0.74600
O821        O  0.66576194  0.02236458  0.98357908    -0.74600
O822        O  0.60129312  0.01965587  0.98408899    -0.74700
Ni823      Ni  0.61620089  0.48387798  0.01530273     1.25400
Ni824      Ni  0.63407476  0.02229389  0.98282387     1.25400
C825        C  0.58224149  0.00117305  0.99930637     0.87600
C826        C  0.66804365  0.00508207  0.99947641     0.87500
C827        C  0.63630223  0.02869752  0.05505714     0.87500
C828        C  0.61224833  0.47730336  0.94300017     0.87700
C829        C  0.51681616  0.48971087  0.02469930    -0.11600
C830        C  0.51018092  0.99877796  0.99561106     0.15000
C831        C  0.52774010  0.00936057  0.96814664     0.01900
C832        C  0.55087033  0.00953452  0.96992408    -0.15900
C833        C  0.55741893  0.00025266  0.99909700    -0.10700
C834        C  0.54034252  0.49077117  0.02700457     0.08600
C835        C  0.98579464  0.99879681  0.99607641     0.09600
S836        S  0.52224568  0.02357746  0.93059141    -0.25000
H837        H  0.56396952  0.01725185  0.94849625     0.19900
S838        S  0.54786313  0.48122272  0.06735605    -0.30700
H839        H  0.00378884  0.48236482  0.04627311     0.10200
C840        C  0.96564677  0.48379812  0.97342270     0.03400
C841        C  0.94320675  0.48513123  0.97488629    -0.13000
C842        C  0.94008465  0.00045288  0.99931705    -0.08700
C843        C  0.95997041  0.01433889  0.02335149     0.06900
C844        C  0.98267410  0.01381976  0.02087083    -0.13800
S845        S  0.96796249  0.46205846  0.94370262    -0.30700
H846        H  0.92791778  0.47391487  0.95702059     0.11100
S847        S  0.95729443  0.03178870  0.05922744    -0.27800
H848        H  0.49790725  0.02480378  0.03898269     0.08300
H849        H  0.57335880  0.50121536  0.06813570     0.26800
H850        H  0.94418812  0.45323989  0.92759563     0.21600
H851        H  0.93280562  0.01215641  0.06865486     0.26900
H852        H  0.50722951  0.03205359  0.94716109     0.15700
C853        C  0.76179158  0.48154311  0.00328815    -0.11600
C854        C  0.76323039  0.00531427  0.00085077     0.15000
C855        C  0.78730662  0.02777137  0.00088233     0.01900
C856        C  0.80936363  0.02590464  0.00221400    -0.15900
C857        C  0.80805987  0.00211282  0.00422707    -0.10700
C858        C  0.78383952  0.47969122  0.00552892     0.08600
C859        C  0.73920473  0.00593909  0.99982224     0.09600
S860        S  0.79130944  0.05934572  0.99893676    -0.25000
H861        H  0.82774445  0.04325313  0.00133126     0.19900
S862        S  0.77957610  0.44827862  0.01153490    -0.30700
H863        H  0.74329491  0.46432422  0.00411297     0.10200
C864        C  0.72995449  0.51079292  0.96890650     0.03400
C865        C  0.70697052  0.51114952  0.96952564    -0.13000
C866        C  0.69301220  0.00643827  0.00046895    -0.08700
C867        C  0.70272010  0.00206665  0.03128102     0.06900
C868        C  0.72542935  0.00146019  0.03049621    -0.13800
S869        S  0.74704465  0.51579981  0.92885832    -0.30700
H870        H  0.69943437  0.51436781  0.94588399     0.11100
S871        S  0.68769647  0.99836480  0.07266856    -0.27800
H872        H  0.73276241  0.99799813  0.05419341     0.08300
H873        H  0.79968373  0.45614767  0.03533839     0.26800
H874        H  0.72993155  0.51909423  0.90794992     0.21600
H875        H  0.67984727  0.01621331  0.06601132     0.26900
H876        H  0.76807385  0.05339662  0.01453489     0.15700
C877        C  0.95623920  0.08037311  0.81366396    -0.11600
C878        C  0.93217897  0.07810297  0.81699085     0.15000
C879        C  0.92311909  0.08747404  0.79042230     0.01900
C880        C  0.93815836  0.09843818  0.76092730    -0.15900
C881        C  0.96199869  0.10004134  0.75710930    -0.10700
C882        C  0.97096284  0.09072208  0.78399664     0.08600
C883        C  0.91672922  0.06432703  0.84758896     0.09600
S884        S  0.89258648  0.08581574  0.79231297    -0.25000
H885        H  0.93104419  0.10549899  0.74059436     0.19900
S886        S  0.49996598  0.08943375  0.78105371    -0.30700
H887        H  0.96312638  0.07294672  0.83383200     0.10200
C888        C  0.90555020  0.03765884  0.85011828     0.03400
C889        C  0.89401681  0.02538199  0.88108864    -0.13000
C890        C  0.89323846  0.03912494  0.90989047    -0.08700
C891        C  0.90267773  0.06570767  0.90616131     0.06900
C892        C  0.91470408  0.07802476  0.87535043    -0.13800
S893        S  0.90665890  0.01930561  0.81407365    -0.30700
H894        H  0.88660224  0.00504441  0.88325437     0.11100
S895        S  0.89981519  0.08502969  0.93925779    -0.27800
H896        H  0.92282232  0.09847973  0.87312247     0.08300
H897        H  0.49540880  0.08029853  0.74692724     0.26800
H898        H  0.89169817  0.49520079  0.82916863     0.21600
H899        H  0.87510168  0.06620223  0.94919139     0.26900
H900        H  0.88031643  0.06418537  0.81354746     0.15700
C901        C  0.57074384  0.40923748  0.79737615    -0.11600
C902        C  0.56138506  0.42086728  0.81971114     0.15000
C903        C  0.53803406  0.41963378  0.81192607     0.01900
C904        C  0.52449218  0.40665350  0.78235546    -0.15900
C905        C  0.53402239  0.39542737  0.75952228    -0.10700
C906        C  0.55726259  0.39640410  0.76755808     0.08600
C907        C  0.57610993  0.43392359  0.85114167     0.09600
S908        S  0.52476051  0.43472178  0.83820289    -0.25000
H909        H  0.50688200  0.40633246  0.77631917     0.19900
S910        S  0.57020328  0.38091657  0.74158434    -0.30700
H911        H  0.58851680  0.40990410  0.80346878     0.10200
C912        C  0.56830301  0.42290415  0.88404581     0.03400
C913        C  0.58134135  0.43699784  0.91341736    -0.13000
C914        C  0.60216618  0.46203526  0.91071377    -0.08700
C915        C  0.61084719  0.47231093  0.87728474     0.06900
C916        C  0.59759780  0.45827419  0.84805670    -0.13800
S917        S  0.54137875  0.39104490  0.88861777    -0.30700
H918        H  0.57460231  0.42876900  0.93862797     0.11100
S919        S  0.63876838  0.00294542  0.87000767    -0.27800
H920        H  0.60383823  0.46653792  0.82271132     0.08300
H921        H  0.54637943  0.36033979  0.73177697     0.26800
H922        H  0.54134000  0.39027670  0.92489580     0.21600
H923        H  0.65316580  0.00002353  0.89625201     0.26900
H924        H  0.54814311  0.45529436  0.84927905     0.15700
C925        C  0.97386485  0.25882739  0.66534402    -0.11600
C926        C  0.99609170  0.25917750  0.67636499     0.15000
C927        C  0.51761104  0.28256377  0.68582610     0.01900
C928        C  0.51663575  0.30508032  0.68342236    -0.15900
C929        C  0.99445105  0.30482771  0.67239871    -0.10700
C930        C  0.97288133  0.28139729  0.66296557     0.08600
C931        C  0.99701273  0.23525873  0.67511800     0.09600
S932        S  0.54691724  0.28496030  0.70082439    -0.25000
H933        H  0.53330190  0.32298507  0.69065514     0.19900
S934        S  0.94428451  0.27927020  0.64555776    -0.30700
H935        H  0.95745845  0.24092799  0.65745216     0.10200
C936        C  0.98586315  0.21660412  0.70111458     0.03400
C937        C  0.98767570  0.19443173  0.69903808    -0.13000
C938        C  0.50011389  0.19050710  0.67122784    -0.08700
C939        C  0.51086712  0.20901663  0.64492233     0.06900
C940        C  0.50949835  0.23133315  0.64738807    -0.13800
S941        S  0.96986931  0.22135128  0.73720162    -0.30700
H942        H  0.97936476  0.18005934  0.71901261     0.11100
S943        S  0.52683358  0.20544468  0.60790866    -0.27800
H944        H  0.51800289  0.24567635  0.62735902     0.08300
H945        H  0.95682530  0.30243973  0.62731266     0.26800
H946        H  0.96266599  0.19806124  0.75380328     0.21600
H947        H  0.51136096  0.17886796  0.60509534     0.26900
H948        H  0.53575945  0.26064854  0.71598929     0.15700
C949        C  0.51531455  0.48289415  0.64313502    -0.11600
C950        C  0.50088490  0.48746055  0.66726225     0.15000
C951        C  0.98494647  0.46793632  0.69036452     0.01900
C952        C  0.98463147  0.44470158  0.68976820    -0.15900
C953        C  0.99923588  0.44001367  0.66579380    -0.10700
C954        C  0.51436045  0.45937846  0.64167783     0.08600
C955        C  0.50205906  0.01242581  0.66741203     0.09600
S956        S  0.96446224  0.47132422  0.72108597    -0.25000
H957        H  0.97277232  0.43016157  0.70820454     0.19900
S958        S  0.53203791  0.45527054  0.60736238    -0.30700
H959        H  0.52685154  0.99767186  0.62547269     0.10200
C960        C  0.51432744  0.03035134  0.69400499     0.03400
C961        C  0.51480432  0.05371942  0.69282887    -0.13000
C962        C  0.50356971  0.05969118  0.66531474    -0.08700
C963        C  0.99258611  0.04212542  0.63771009     0.06900
C964        C  0.99158418  0.01860940  0.63939501    -0.13800
S965        S  0.52976294  0.02364974  0.72904886    -0.30700
H966        H  0.52369149  0.06725713  0.71367816     0.11100
S967        S  0.98066853  0.04885862  0.59882758    -0.27800
H968        H  0.98353242  0.50545571  0.61793034     0.08300
H969        H  0.51176669  0.43125322  0.59744991     0.26800
H970        H  0.53770797  0.04646056  0.74737898     0.21600
H971        H  0.00041324  0.07442065  0.59664363     0.26900
H972        H  0.96070539  0.48884335  0.70188949     0.15700
C973        C  0.56375468  0.13616992  0.45603924    -0.11600
C974        C  0.57999223  0.15164226  0.48248216     0.15000
C975        C  0.60665999  0.16483754  0.47672193     0.01900
C976        C  0.61633744  0.16172431  0.44528899    -0.15900
C977        C  0.59996571  0.14639254  0.41887469    -0.10700
C978        C  0.57335858  0.13372015  0.42436205     0.08600
C979        C  0.56845336  0.15116951  0.51665879     0.09600
S980        S  0.62932035  0.18573370  0.50841594    -0.25000
H981        H  0.63674991  0.17132136  0.44139458     0.19900
S982        S  0.55081965  0.11200786  0.39326553    -0.30700
H983        H  0.54338636  0.12534293  0.46044104     0.10200
C984        C  0.54931884  0.15783463  0.52037690     0.03400
C985        C  0.53654088  0.15368476  0.55207448    -0.13000
C986        C  0.54271159  0.14340283  0.58044502    -0.08700
C987        C  0.56230961  0.13733111  0.57683649     0.06900
C988        C  0.57490823  0.14132933  0.54522154    -0.13800
S989        S  0.54144973  0.17205700  0.48497409    -0.30700
H990        H  0.52163704  0.15849526  0.55483569     0.11100
S991        S  0.57084267  0.12259018  0.61067751    -0.27800
H992        H  0.58919213  0.13563542  0.54241380     0.08300
H993        H  0.55914086  0.13019311  0.36668885     0.26800
H994        H  0.52136271  0.17317166  0.50144954     0.21600
H995        H  0.54553517  0.10542509  0.62015357     0.26900
H996        H  0.61293420  0.19287864  0.52412401     0.15700
C997        C  0.63826415  0.07574728  0.12173140    -0.11600
C998        C  0.64755371  0.06933785  0.15097424     0.15000
C999        C  0.65413625  0.05004642  0.14797323     0.01900
C1000       C  0.65028753  0.03708412  0.11653916    -0.15900
C1001       C  0.64080395  0.04343278  0.08741508    -0.10700
C1002       C  0.63489059  0.06317129  0.09022174     0.08600
C1003       C  0.64693541  0.08082375  0.18477554     0.09600
S1004       S  0.66765136  0.04119252  0.18312874    -0.25000
H1005       H  0.65496921  0.02201259  0.11472826     0.19900
S1006       S  0.62101441  0.07189840  0.05543481    -0.30700
H1007       H  0.63243017  0.08993992  0.12386843     0.10200
C1008       C  0.65914486  0.10752415  0.18981856     0.03400
C1009       C  0.65504000  0.11727561  0.22058678    -0.13000
C1010       C  0.63952997  0.10092664  0.24681188    -0.08700
C1011       C  0.62794587  0.07429231  0.24213313     0.06900
C1012       C  0.63169394  0.06457126  0.21133046    -0.13800
S1013       S  0.68039894  0.12925110  0.15750986    -0.30700
H1014       H  0.66398178  0.13766070  0.22436947     0.11100
S1015       S  0.60687771  0.05173813  0.27365658    -0.27800
H1016       H  0.62183729  0.04413111  0.20751684     0.08300
H1017       H  0.60388978  0.04662582  0.04552758     0.26800
H1018       H  0.68810349  0.15186447  0.17623428     0.21600
H1019       H  0.59395716  0.06510829  0.28026962     0.26900
H1020       H  0.67929211  0.06511255  0.19956211     0.15700
C1021       C  0.93759639  0.36098553  0.45279714    -0.11600
C1022       C  0.92138148  0.34841175  0.48074595     0.15000
C1023       C  0.89484440  0.33857326  0.47660529     0.01900
C1024       C  0.88546672  0.34283102  0.44571868    -0.15900
C1025       C  0.90181472  0.35584595  0.41811782    -0.10700
C1026       C  0.92815529  0.36462530  0.42166419     0.08600
C1027       C  0.93311317  0.34922955  0.51493375     0.09600
S1028       S  0.87195535  0.32044333  0.50969391    -0.25000
H1029       H  0.86523414  0.33581830  0.44312663     0.19900
S1030       S  0.95103651  0.38245488  0.38850236    -0.30700
H1031       H  0.95798965  0.36920777  0.45580925     0.10200
C1032       C  0.95057395  0.34044705  0.51974635     0.03400
C1033       C  0.96318738  0.34443915  0.55162620    -0.13000
C1034       C  0.95847585  0.35669286  0.57898222    -0.08700
C1035       C  0.94079422  0.36516471  0.57416013     0.06900
C1036       C  0.92840868  0.36135097  0.54245079    -0.13800
S1037       S  0.95628068  0.32349481  0.48578093    -0.30700
H1038       H  0.97659403  0.33774345  0.55546797     0.11100
S1039       S  0.93451944  0.38258545  0.60665182    -0.27800
H1040       H  0.91560716  0.36882657  0.53876662     0.08300
H1041       H  0.94079878  0.39826516  0.38172548     0.26800
H1042       H  0.97597056  0.32177811  0.50250607     0.21600
H1043       H  0.96031127  0.39821433  0.61546301     0.26900
H1044       H  0.88642644  0.31072181  0.52482368     0.15700
C1045       C  0.97163168  0.48314373  0.36228860    -0.11600
C1046       C  0.98925719  0.48888408  0.33565796     0.15000
C1047       C  0.98474263  0.47025266  0.31047203     0.01900
C1048       C  0.96181167  0.44703064  0.31105843    -0.15900
C1049       C  0.94373644  0.44139584  0.33728386    -0.10700
C1050       C  0.94937028  0.45946631  0.36399720     0.08600
C1051       C  0.51229604  0.01436045  0.33574958     0.09600
S1052       S  0.50752945  0.47472881  0.27732810    -0.25000
H1053       H  0.95814175  0.43324175  0.29082754     0.19900
S1054       S  0.92992954  0.45333401  0.40193439    -0.30700
H1055       H  0.97553429  0.99703319  0.38265104     0.10200
C1056       C  0.51703569  0.03249234  0.30981737     0.03400
C1057       C  0.53966393  0.05608560  0.31089464    -0.13000
C1058       C  0.55734350  0.06214112  0.33783547    -0.08700
C1059       C  0.55155962  0.04440263  0.36496545     0.06900
C1060       C  0.52943480  0.02061787  0.36319981    -0.13800
S1061       S  0.99404212  0.02589690  0.27592058    -0.30700
H1062       H  0.54372988  0.06973943  0.29040084     0.11100
S1063       S  0.57076591  0.05109620  0.40332169    -0.27800
H1064       H  0.52542410  0.50677374  0.38372396     0.08300
H1065       H  0.92581672  0.42852074  0.40677450     0.26800
H1066       H  0.50884014  0.04838035  0.25693130     0.21600
H1067       H  0.57567415  0.07629713  0.40665011     0.26900
H1068       H  0.52943314  0.49134683  0.29632005     0.15700
C1069       C  0.76384131  0.28561947  0.32769979    -0.11600
C1070       C  0.76377135  0.26255123  0.33045172     0.15000
C1071       C  0.78716923  0.26281644  0.33250555     0.01900
C1072       C  0.81005689  0.28619292  0.33207831    -0.15900
C1073       C  0.81018074  0.30938866  0.32957197    -0.10700
C1074       C  0.78665304  0.30895148  0.32704322     0.08600
C1075       C  0.73887563  0.23868284  0.33082486     0.09600
S1076       S  0.78920600  0.23419467  0.33636829    -0.25000
H1077       H  0.82792744  0.28628217  0.33424417     0.19900
S1078       S  0.78416025  0.33722874  0.32207113    -0.30700
H1079       H  0.74588586  0.28540593  0.32586017     0.10200
C1080       C  0.72842907  0.22495501  0.36153678     0.03400
C1081       C  0.70468770  0.20245331  0.36050220    -0.13000
C1082       C  0.69088142  0.19377391  0.32954711    -0.08700
C1083       C  0.70124865  0.20789262  0.29895368     0.06900
C1084       C  0.72516680  0.23006121  0.29987248    -0.13800
S1085       S  0.74505362  0.23637592  0.40209403    -0.30700
H1086       H  0.69664166  0.19169855  0.38397911     0.11100
S1087       S  0.68564789  0.19758497  0.25776152    -0.27800
H1088       H  0.73322477  0.24067847  0.27626199     0.08300
H1089       H  0.80582333  0.35036077  0.30114147     0.26800
H1090       H  0.72652132  0.21683621  0.42285127     0.21600
H1091       H  0.66536353  0.20127192  0.26743759     0.26900
H1092       H  0.76593573  0.21755101  0.32019267     0.15700
C1093       C  0.85121820  0.45735457  0.15233194    -0.11600
C1094       C  0.86215266  0.44170366  0.15470280     0.15000
C1095       C  0.87298897  0.43758019  0.12481135     0.01900
C1096       C  0.87214021  0.44856130  0.09347309    -0.15900
C1097       C  0.86176959  0.46463569  0.09129916    -0.10700
C1098       C  0.85111833  0.46902046  0.12110674     0.08600
C1099       C  0.86109445  0.42897268  0.18801472     0.09600
S1100       S  0.88927245  0.41951402  0.12522111    -0.25000
H1101       H  0.88084849  0.44554407  0.07082778     0.19900
S1102       S  0.83626309  0.98850628  0.12048718    -0.30700
H1103       H  0.84250974  0.46034744  0.17496621     0.10200
C1104       C  0.87324578  0.44298881  0.21810567     0.03400
C1105       C  0.87293949  0.42993757  0.24822570    -0.13000
C1106       C  0.86140634  0.40323024  0.24869178    -0.08700
C1107       C  0.84884558  0.38922581  0.21878551     0.07500
C1108       C  0.84853960  0.40220653  0.18906605    -0.13800
S1109       S  0.89082533  0.47746366  0.21760615    -0.30700
H1110       H  0.88289104  0.44061681  0.27102873     0.11100
S1111       S  0.83311687  0.35489457  0.21648150    -0.27800
H1112       H  0.83893067  0.39134805  0.16617181     0.08300
H1113       H  0.82822756  0.98366723  0.08588040     0.26800
H1114       H  0.89865025  0.48095721  0.25233769     0.21600
H1115       H  0.82871212  0.35018456  0.25195320     0.26900
H1116       H  0.89901596  0.42649676  0.15889586     0.15700
O1117       O  0.91765248  0.89842847  0.31791315    -0.74600
O1118       O  0.85425603  0.83514731  0.31557609    -0.74600
O1119       O  0.87630953  0.87809231  0.27616242    -0.74700
O1120       O  0.89639801  0.85604717  0.35709517    -0.74700
O1121       O  0.87778287  0.87217666  0.39014499    -0.74700
O1122       O  0.85931838  0.89585319  0.30929572    -0.74600
O1123       O  0.83645112  0.85250077  0.34780803    -0.74600
O1124       O  0.89980110  0.91495264  0.35150441    -0.74700
Ni1125     Ni  0.88667364  0.86619116  0.31547375     1.25400
Ni1126     Ni  0.86759797  0.88433557  0.35086107     1.25400
C1127       C  0.91922545  0.91705230  0.33560867     0.87600
C1128       C  0.83477346  0.83357739  0.33090381     0.87500
C1129       C  0.86540957  0.89143237  0.27949794     0.87500
C1130       C  0.89114897  0.86128312  0.38694505     0.87700
O1131       O  0.58337112  0.60494925  0.31879636    -0.74600
O1132       O  0.64679236  0.66787196  0.31489896    -0.74600
O1133       O  0.62398871  0.62503399  0.27562106    -0.74700
O1134       O  0.60560164  0.64726982  0.35792273    -0.74700
O1135       O  0.62409445  0.63049429  0.38999058    -0.74700
O1136       O  0.64176570  0.60749123  0.30767138    -0.74600
O1137       O  0.66493247  0.65069119  0.34685049    -0.74600
O1138       O  0.60167367  0.58807340  0.35090658    -0.74700
Ni1139     Ni  0.61439733  0.63700178  0.31563674     1.25400
Ni1140     Ni  0.63389556  0.61870575  0.34995417     1.25400
C1141       C  0.58199350  0.58624602  0.33602034     0.87600
C1142       C  0.66633302  0.66958817  0.33016989     0.87500
C1143       C  0.63516573  0.61190805  0.27819862     0.87500
C1144       C  0.61081543  0.64151286  0.38745510     0.87700
O1145       O  0.97928802  0.89594894  0.68212961    -0.74600
O1146       O  0.97656175  0.83129902  0.68435692    -0.74600
O1147       O  0.99586224  0.87304948  0.72638113    -0.74700
O1148       O  0.95975794  0.85485209  0.64041464    -0.74700
O1149       O  0.49662176  0.87134847  0.61195573    -0.74700
O1150       O  0.53287821  0.88999499  0.69826695    -0.74600
O1151       O  0.51374689  0.84849049  0.65657721    -0.74600
O1152       O  0.51614736  0.91267704  0.65393073    -0.74700
Ni1153     Ni  0.97655063  0.86305627  0.68434791     1.25400
Ni1154     Ni  0.51613573  0.88112326  0.65414604     1.25400
C1155       C  0.99813224  0.91499006  0.66733835     0.87600
C1156       C  0.99481876  0.82933307  0.67087280     0.87500
C1157       C  0.52028852  0.88521519  0.72649857     0.87500
C1158       C  0.97225089  0.86089783  0.61205183     0.87700
O1159       O  0.52086196  0.60312873  0.68294538    -0.74600
O1160       O  0.51963671  0.66582630  0.68484803    -0.74600
O1161       O  0.50103954  0.62387400  0.72594800    -0.74700
O1162       O  0.53971075  0.64456936  0.64204903    -0.74700
O1163       O  0.00363115  0.62671664  0.61156391    -0.74700
O1164       O  0.96485585  0.60546623  0.69576848    -0.74600
O1165       O  0.98332071  0.64733756  0.65474492    -0.74600
O1166       O  0.98484781  0.58509386  0.65243175    -0.74700
Ni1167     Ni  0.52159073  0.63511147  0.68505667     1.25400
Ni1168     Ni  0.98288580  0.61559964  0.65254873     1.25400
C1169       C  0.50320990  0.58386991  0.66682632     0.87600
C1170       C  0.50119050  0.66677126  0.67012406     0.87500
C1171       C  0.97666542  0.61049733  0.72474195     0.87500
C1172       C  0.52805555  0.63821544  0.61299031     0.87700
O1173       O  0.91531231  0.52017942  0.01338132    -0.74600
O1174       O  0.85232692  0.52034799  0.01685346    -0.74600
O1175       O  0.87605031  0.50256630  0.05835835    -0.74700
O1176       O  0.89198285  0.53820240  0.97205633    -0.74700
O1177       O  0.87230536  0.00102841  0.94399806    -0.74700
O1178       O  0.85731609  0.96532790  0.03027636    -0.74600
O1179       O  0.83300006  0.98299162  0.98925813    -0.74600
O1180       O  0.89608638  0.98306727  0.98509494    -0.74700
Ni1181     Ni  0.88453423  0.52164178  0.01615023     1.25400
Ni1182     Ni  0.86390702  0.98179339  0.98612884     1.25400
C1183       C  0.91610031  0.50145416  0.99931989     0.87600
C1184       C  0.83223301  0.50163947  0.00372878     0.87500
C1185       C  0.86472212  0.97813291  0.05841502     0.87500
C1186       C  0.88505945  0.52564195  0.94372068     0.87700
O1187       O  0.58440617  0.98349548  0.01422533    -0.74600
O1188       O  0.64898721  0.98658623  0.01463946    -0.74600
O1189       O  0.62552929  0.00433158  0.05648656    -0.74700
O1190       O  0.60756186  0.96570707  0.97226382    -0.74700
O1191       O  0.62402100  0.50171032  0.94174602    -0.74700
O1192       O  0.64253673  0.54050282  0.02571112    -0.74600
O1193       O  0.66584202  0.52249646  0.98336568    -0.74600
O1194       O  0.60133672  0.51971677  0.98381548    -0.74700
Ni1195     Ni  0.61610336  0.98373912  0.01545664     1.25400
Ni1196     Ni  0.63413652  0.52239295  0.98258223     1.25400
C1197       C  0.58230263  0.50124856  0.99907969     0.87600
C1198       C  0.66813370  0.50523049  0.99929371     0.87500
C1199       C  0.63637504  0.52887766  0.05480545     0.87500
C1200       C  0.61213721  0.97725206  0.94313592     0.87700
C1201       C  0.51661704  0.98938409  0.02469460    -0.11600
C1202       C  0.51026752  0.49890604  0.99551474     0.15000
C1203       C  0.52770576  0.50925496  0.96788017     0.01900
C1204       C  0.55081929  0.50939606  0.96961476    -0.15900
C1205       C  0.55748016  0.50032210  0.99889321    -0.10700
C1206       C  0.54015596  0.99047213  0.02705367     0.08600
C1207       C  0.98589534  0.49896057  0.99601146     0.09600
S1208       S  0.52208212  0.52322822  0.93016422    -0.25000
H1209       H  0.56384214  0.51694632  0.94804836     0.19900
S1210       S  0.54751395  0.98064991  0.06730095    -0.30700
H1211       H  0.00351176  0.98187146  0.04612014     0.10200
C1212       C  0.96562949  0.98375307  0.97330909     0.03400
C1213       C  0.94317287  0.98505968  0.97474966    -0.13000
C1214       C  0.94020411  0.50066525  0.99930911    -0.08700
C1215       C  0.96019077  0.51469911  0.02315736     0.06900
C1216       C  0.98287636  0.51414558  0.02064403    -0.13800
S1217       S  0.96808562  0.96222225  0.94335131    -0.30700
H1218       H  0.92796159  0.97396567  0.95674709     0.11100
S1219       S  0.95767961  0.53239588  0.05884176    -0.27800
H1220       H  0.49819010  0.52524213  0.03862748     0.08300
H1221       H  0.57297228  0.00070952  0.06840727     0.26800
H1222       H  0.94418772  0.95316809  0.92750135     0.21600
H1223       H  0.93328398  0.51277826  0.06864125     0.26900
H1224       H  0.50720773  0.53189676  0.94668191     0.15700
C1225       C  0.76178887  0.98155156  0.00325443    -0.11600
C1226       C  0.76322613  0.50529663  0.00073075     0.15000
C1227       C  0.78729729  0.52775662  0.00067062     0.01900
C1228       C  0.80935901  0.52590399  0.00208284    -0.15900
C1229       C  0.80806438  0.50212343  0.00425563    -0.10700
C1230       C  0.78382886  0.97968365  0.00542845     0.08600
C1231       C  0.73920644  0.50592860  0.99966215     0.09600
S1232       S  0.79128146  0.55931595  0.99848873    -0.25000
H1233       H  0.82773692  0.54325303  0.00112944     0.19900
S1234       S  0.77954000  0.94824695  0.01126388    -0.30700
H1235       H  0.74328961  0.96433333  0.00401179     0.10200
C1236       C  0.73000906  0.01095293  0.96912886     0.03400
C1237       C  0.70698233  0.01122380  0.96976109    -0.13000
C1238       C  0.69309064  0.50657015  0.00027806    -0.08700
C1239       C  0.70284241  0.50232226  0.03113549     0.06900
C1240       C  0.72551385  0.50164520  0.03037243    -0.13800
S1241       S  0.74720390  0.01622096  0.92911951    -0.30700
H1242       H  0.69947681  0.01452266  0.94614637     0.11100
S1243       S  0.68792101  0.49887338  0.07254346    -0.27800
H1244       H  0.73288679  0.49829103  0.05410806     0.08300
H1245       H  0.79960158  0.95603781  0.03512506     0.26800
H1246       H  0.73065714  0.02061461  0.90855057     0.21600
H1247       H  0.68010909  0.51672575  0.06568731     0.26900
H1248       H  0.76810092  0.55342525  0.01421113     0.15700
C1249       C  0.95617256  0.58031837  0.81369093    -0.11600
C1250       C  0.93218519  0.57821355  0.81707622     0.15000
C1251       C  0.92319728  0.58767364  0.79052899     0.01900
C1252       C  0.93823742  0.59857686  0.76101215    -0.15900
C1253       C  0.96200138  0.60001745  0.75714605    -0.10700
C1254       C  0.97088343  0.59058801  0.78399289     0.08600
C1255       C  0.91670774  0.56446185  0.84767597     0.09600
S1256       S  0.89274751  0.58618893  0.79246946    -0.25000
H1257       H  0.93118566  0.60571533  0.74070688     0.19900
S1258       S  0.49974846  0.58904930  0.78094534    -0.30700
H1259       H  0.96299852  0.57281156  0.83382605     0.10200
C1260       C  0.90548821  0.53778946  0.85020411     0.03400
C1261       C  0.89397354  0.52552453  0.88118516    -0.13000
C1262       C  0.89323637  0.53927583  0.91000259    -0.08700
C1263       C  0.90268349  0.56585980  0.90626903     0.06900
C1264       C  0.91470649  0.57817155  0.87544664    -0.13800
S1265       S  0.90651981  0.51940967  0.81413925    -0.30700
H1266       H  0.88653930  0.50518154  0.88334287     0.11100
S1267       S  0.89982647  0.58518203  0.93937011    -0.27800
H1268       H  0.92284371  0.59862948  0.87321990     0.08300
H1269       H  0.49514923  0.58001548  0.74676844     0.26800
H1270       H  0.89188629  0.99509181  0.82911134     0.21600
H1271       H  0.87512262  0.56634727  0.94933095     0.26900
H1272       H  0.88038031  0.56449137  0.81356949     0.15700
C1273       C  0.57060062  0.90917958  0.79752446    -0.11600
C1274       C  0.56133906  0.92101478  0.81965719     0.15000
C1275       C  0.53809904  0.91995659  0.81167224     0.01900
C1276       C  0.52454725  0.90691413  0.78214247    -0.15900
C1277       C  0.53397460  0.89546867  0.75952436    -0.10700
C1278       C  0.55712107  0.89630193  0.76772283     0.08600
C1279       C  0.57600475  0.93403994  0.85114330     0.09600
S1280       S  0.52499115  0.93534604  0.83764952    -0.25000
H1281       H  0.50701257  0.90671309  0.77595609     0.19900
S1282       S  0.56993661  0.88058537  0.74197400    -0.30700
H1283       H  0.58829396  0.90971729  0.80376805     0.10200
C1284       C  0.56809282  0.92300792  0.88402318     0.03400
C1285       C  0.58111192  0.93704503  0.91344336    -0.13000
C1286       C  0.60202778  0.96203549  0.91081174    -0.08700
C1287       C  0.61079003  0.97232967  0.87741177     0.06900
C1288       C  0.59755841  0.95835184  0.84813584    -0.13800
S1289       S  0.54105927  0.89120434  0.88849763    -0.30700
H1290       H  0.57429363  0.92881392  0.93863261     0.11100
S1291       S  0.63872907  0.50298122  0.86977789    -0.27800
H1292       H  0.60387546  0.96662779  0.82280834     0.08300
H1293       H  0.54608189  0.86013373  0.73198980     0.26800
H1294       H  0.54117231  0.89025914  0.92475990     0.21600
H1295       H  0.65322591  0.50016213  0.89597162     0.26900
H1296       H  0.54845603  0.95590899  0.84850697     0.15700
C1297       C  0.97386893  0.75876781  0.66624459    -0.11600
C1298       C  0.99636925  0.75927115  0.67621470     0.15000
C1299       C  0.51812450  0.78278822  0.68458081     0.01900
C1300       C  0.51706230  0.80526565  0.68223438    -0.15900
C1301       C  0.99459291  0.80486429  0.67226735    -0.10700
C1302       C  0.97281084  0.78129733  0.66385965     0.08600
C1303       C  0.99723574  0.73532338  0.67501718     0.09600
S1304       S  0.54786060  0.78541755  0.69798387    -0.25000
H1305       H  0.53389858  0.82326257  0.68868033     0.19900
S1306       S  0.94379043  0.77890587  0.64770766    -0.30700
H1307       H  0.95727186  0.74075902  0.65916693     0.10200
C1308       C  0.98737133  0.71737146  0.70201712     0.03400
C1309       C  0.98914904  0.69517727  0.69995949    -0.13000
C1310       C  0.50018232  0.69048162  0.67113633    -0.08700
C1311       C  0.50959045  0.70826337  0.64382753     0.06900
C1312       C  0.50834265  0.73064728  0.64628906    -0.13800
S1313       S  0.97303504  0.72303537  0.73928604    -0.30700
H1314       H  0.98185822  0.68136691  0.72070689     0.11100
S1315       S  0.52388582  0.70379542  0.60562311    -0.27800
H1316       H  0.51586723  0.74445534  0.62550777     0.08300
H1317       H  0.95590507  0.80170973  0.62860649     0.26800
H1318       H  0.96626723  0.69999985  0.75632311     0.21600
H1319       H  0.50814010  0.67720491  0.60388402     0.26900
H1320       H  0.53721708  0.76130655  0.71363285     0.15700
C1321       C  0.51503526  0.98284254  0.64359947    -0.11600
C1322       C  0.50048831  0.98729737  0.66765625     0.15000
C1323       C  0.98455161  0.96771618  0.69068672     0.01900
C1324       C  0.98431856  0.94451788  0.69004976    -0.15900
C1325       C  0.99902079  0.93993173  0.66611301    -0.10700
C1326       C  0.51417814  0.95937454  0.64210660     0.08600
C1327       C  0.50255371  0.51263137  0.66702837     0.09600
S1328       S  0.96397925  0.97099352  0.72136759    -0.25000
H1329       H  0.97244500  0.92992739  0.70841507     0.19900
S1330       S  0.53203006  0.95543661  0.60788227    -0.30700
H1331       H  0.52711483  0.49767063  0.62493781     0.10200
C1332       C  0.51469327  0.53045931  0.69376801     0.03400
C1333       C  0.51508303  0.55378477  0.69273863    -0.13000
C1334       C  0.50389705  0.55981120  0.66522603    -0.08700
C1335       C  0.99311377  0.54238866  0.63743402     0.06900
C1336       C  0.99218776  0.51890563  0.63897247    -0.13800
S1337       S  0.53005825  0.52368412  0.72883121    -0.30700
H1338       H  0.52384670  0.56723678  0.71370730     0.11100
S1339       S  0.98133109  0.54925877  0.59852804    -0.27800
H1340       H  0.98282104  0.00507669  0.61846618     0.08300
H1341       H  0.51181471  0.93145983  0.59772369     0.26800
H1342       H  0.53773834  0.54633987  0.74742192     0.21600
H1343       H  0.00094659  0.57489236  0.59668102     0.26900
H1344       H  0.96017250  0.98847802  0.70216532     0.15700
C1345       C  0.56388122  0.63581226  0.45630326    -0.11600
C1346       C  0.58012786  0.65134277  0.48269713     0.15000
C1347       C  0.60678634  0.66461245  0.47687463     0.01900
C1348       C  0.61645042  0.66153484  0.44540770    -0.15900
C1349       C  0.60006878  0.64615905  0.41902881    -0.10700
C1350       C  0.57346790  0.63339256  0.42459595     0.08600
C1351       C  0.56860675  0.65092367  0.51686119     0.09600
S1352       S  0.62944598  0.68556664  0.50852596    -0.25000
H1353       H  0.63686289  0.67120073  0.44145463     0.19900
S1354       S  0.55092657  0.61162545  0.39354683    -0.30700
H1355       H  0.54351948  0.62494001  0.46075675     0.10200
C1356       C  0.54953918  0.65768144  0.52053660     0.03400
C1357       C  0.53677664  0.65361551  0.55222770    -0.13000
C1358       C  0.54289765  0.64332637  0.58063459    -0.08700
C1359       C  0.56243293  0.63715869  0.57706936     0.06900
C1360       C  0.57502023  0.64107660  0.54545596    -0.13800
S1361       S  0.54173535  0.67191113  0.48507739    -0.30700
H1362       H  0.52191689  0.65849194  0.55495368     0.11100
S1363       S  0.57090257  0.62240714  0.61096747    -0.27800
H1364       H  0.58926137  0.63532476  0.54267845     0.08300
H1365       H  0.55915793  0.62979748  0.36695999     0.26800
H1366       H  0.52170526  0.67314360  0.50153042     0.21600
H1367       H  0.54558487  0.60531932  0.62045907     0.26900
H1368       H  0.61303008  0.69265974  0.52426566     0.15700
C1369       C  0.63830596  0.57589438  0.12152322    -0.11600
C1370       C  0.64766444  0.56951963  0.15073049     0.15000
C1371       C  0.65431941  0.55028448  0.14766975     0.01900
C1372       C  0.65045241  0.53732451  0.11623367    -0.15900
C1373       C  0.64089745  0.54363212  0.08714896    -0.10700
C1374       C  0.63493095  0.56333153  0.08999727     0.08600
C1375       C  0.64704544  0.58096823  0.18456767     0.09600
S1376       S  0.66795776  0.54150389  0.18274995    -0.25000
H1377       H  0.65517823  0.52228481  0.11438960     0.19900
S1378       S  0.62100483  0.57203482  0.05524619    -0.30700
H1379       H  0.63242352  0.59004718  0.12370091     0.10200
C1380       C  0.65915245  0.60766089  0.18962711     0.03400
C1381       C  0.65505545  0.61735672  0.22045486    -0.13000
C1382       C  0.63964105  0.60096432  0.24671143    -0.08700
C1383       C  0.62815797  0.57433984  0.24201034     0.06900
C1384       C  0.63189932  0.56467302  0.21115233    -0.13800
S1385       S  0.68031365  0.62944705  0.15729326    -0.30700
H1386       H  0.66395162  0.63773240  0.22427941     0.11100
S1387       S  0.60724406  0.55171946  0.27358921    -0.27800
H1388       H  0.62211528  0.54423669  0.20732800     0.08300
H1389       H  0.60396987  0.54676893  0.04522301     0.26800
H1390       H  0.68694693  0.65211061  0.17529100     0.21600
H1391       H  0.59426121  0.56499670  0.28041522     0.26900
H1392       H  0.67958341  0.56543581  0.19915133     0.15700
C1393       C  0.93731439  0.86085011  0.45295153    -0.11600
C1394       C  0.92110190  0.84846111  0.48097113     0.15000
C1395       C  0.89458954  0.83879132  0.47687349     0.01900
C1396       C  0.88524015  0.84299123  0.44591622    -0.15900
C1397       C  0.90158972  0.85581533  0.41823025    -0.10700
C1398       C  0.92790437  0.86446426  0.42177420     0.08600
C1399       C  0.93285189  0.84927265  0.51514278     0.09600
S1400       S  0.87169838  0.82097216  0.51010920    -0.25000
H1401       H  0.86503131  0.83610200  0.44334804     0.19900
S1402       S  0.95081225  0.88211306  0.38855586    -0.30700
H1403       H  0.95769421  0.86894948  0.45593617     0.10200
C1404       C  0.95008976  0.84021636  0.51998215     0.03400
C1405       C  0.96277971  0.84421343  0.55180347    -0.13000
C1406       C  0.95835608  0.85673957  0.57907651    -0.08700
C1407       C  0.94089991  0.86549063  0.57422902     0.06900
C1408       C  0.92842939  0.86166333  0.54258102    -0.13800
S1409       S  0.95542115  0.82293293  0.48610809    -0.30700
H1410       H  0.97602531  0.83731904  0.55566462     0.11100
S1411       S  0.93505754  0.88329384  0.60660593    -0.27800
H1412       H  0.91580171  0.86933897  0.53887095     0.08300
H1413       H  0.94068731  0.89799606  0.38159522     0.26800
H1414       H  0.97468541  0.82059775  0.50303805     0.21600
H1415       H  0.96093397  0.89873941  0.61510651     0.26900
H1416       H  0.88603643  0.81116015  0.52540085     0.15700
C1417       C  0.97160288  0.98310037  0.36248114    -0.11600
C1418       C  0.98912986  0.98897482  0.33567516     0.15000
C1419       C  0.98458951  0.97040332  0.31037543     0.01900
C1420       C  0.96169762  0.94713888  0.31099468    -0.15900
C1421       C  0.94371131  0.94139251  0.33737830    -0.10700
C1422       C  0.94941054  0.95936737  0.36423511     0.08600
C1423       C  0.51245774  0.51422958  0.33573204     0.09600
S1424       S  0.50731012  0.97499602  0.27707279    -0.25000
H1425       H  0.95798433  0.93340393  0.29066288     0.19900
S1426       S  0.93015315  0.95301646  0.40241399    -0.30700
H1427       H  0.97552801  0.49714209  0.38234270     0.10200
C1428       C  0.51724058  0.53234269  0.30976211     0.03400
C1429       C  0.53987611  0.55592058  0.31084995    -0.13000
C1430       C  0.55752316  0.56197787  0.33783372    -0.08700
C1431       C  0.55171373  0.54424826  0.36497953     0.06900
C1432       C  0.52956992  0.52047655  0.36321423    -0.13800
S1433       S  0.99429278  0.52573390  0.27579382    -0.30700
H1434       H  0.54397411  0.56956326  0.29032912     0.11100
S1435       S  0.57090859  0.55094313  0.40334696    -0.27800
H1436       H  0.52532786  0.00690841  0.38368731     0.08300
H1437       H  0.92596962  0.92813881  0.40679049     0.26800
H1438       H  0.50900647  0.54832960  0.25698778     0.21600
H1439       H  0.57585509  0.57615816  0.40664458     0.26900
H1440       H  0.52924512  0.99160257  0.29602023     0.15700
C1441       C  0.76370467  0.78576863  0.32748101    -0.11600
C1442       C  0.76361300  0.76269085  0.33025425     0.15000
C1443       C  0.78699580  0.76293103  0.33233199     0.01900
C1444       C  0.80989459  0.78629381  0.33193118    -0.15900
C1445       C  0.81004552  0.80950330  0.32943658    -0.10700
C1446       C  0.78653131  0.80909151  0.32685819     0.08600
C1447       C  0.73871814  0.73882860  0.33068963     0.09600
S1448       S  0.78899309  0.73428910  0.33623169    -0.25000
H1449       H  0.82775377  0.78636144  0.33412641     0.19900
S1450       S  0.78407450  0.83738931  0.32188810    -0.30700
H1451       H  0.74575818  0.78557070  0.32562059     0.10200
C1452       C  0.72826060  0.72519947  0.36146482     0.03400
C1453       C  0.70457800  0.70262893  0.36047580    -0.13000
C1454       C  0.69083935  0.69379461  0.32949836    -0.08700
C1455       C  0.70119789  0.70782991  0.29884497     0.06900
C1456       C  0.72506491  0.73006200  0.29971952    -0.13800
S1457       S  0.74480527  0.73683004  0.40203281    -0.30700
H1458       H  0.69652350  0.69193976  0.38399964     0.11100
S1459       S  0.68565133  0.69733131  0.25764804    -0.27800
H1460       H  0.73313322  0.74060506  0.27605992     0.08300
H1461       H  0.80579370  0.85054991  0.30106705     0.26800
H1462       H  0.72631673  0.71729383  0.42283886     0.21600
H1463       H  0.66528578  0.70093656  0.26715497     0.26900
H1464       H  0.76573804  0.71766330  0.32000665     0.15700
C1465       C  0.85106423  0.95734784  0.15228131    -0.11600
C1466       C  0.86212650  0.94181725  0.15476317     0.15000
C1467       C  0.87309822  0.93777425  0.12495325     0.01900
C1468       C  0.87225352  0.94871176  0.09357691    -0.15900
C1469       C  0.86173044  0.96464668  0.09128562    -0.10700
C1470       C  0.85094752  0.96895643  0.12101217     0.08600
C1471       C  0.86103601  0.92909062  0.18808411     0.09600
S1472       S  0.88951633  0.91983869  0.12551038    -0.25000
H1473       H  0.88106505  0.94576093  0.07099170     0.19900
S1474       S  0.83662933  0.48874814  0.12074987    -0.30700
H1475       H  0.84225491  0.96027786  0.17485952     0.10200
C1476       C  0.87313307  0.94310378  0.21819706     0.03400
C1477       C  0.87286896  0.93005206  0.24829553    -0.13000
C1478       C  0.86139710  0.90334870  0.24872679    -0.08700
C1479       C  0.84883871  0.88934601  0.21881924     0.07500
C1480       C  0.84852458  0.90232708  0.18910731    -0.13800
S1481       S  0.89057398  0.97757971  0.21775874    -0.30700
H1482       H  0.88279601  0.94073039  0.27111108     0.11100
S1483       S  0.83310440  0.85501518  0.21650990    -0.27800
H1484       H  0.83894472  0.89147453  0.16620039     0.08300
H1485       H  0.82845323  0.48390566  0.08619872     0.26800
H1486       H  0.89828652  0.98106879  0.25253820     0.21600
H1487       H  0.82869548  0.85030358  0.25198038     0.26900
H1488       H  0.89911617  0.92679003  0.15925342     0.15700
loop_ 
_geom_bond_atom_site_label_1 
_geom_bond_atom_site_label_2 
_geom_bond_distance 
_geom_bond_site_symmetry_2 
_ccdc_geom_bond_type 
O1           Ni9   1.917       .  S
O1           C11   1.282       .  A
O2           Ni9   1.922       .  S
O2           C12   1.283       .  A
O3           Ni9   1.920       .  S
O3           C13   1.281       .  A
O4           Ni9   1.920       .  S
O4           C14   1.281       .  A
O5          Ni10   1.923       .  S
O5           C14   1.282       .  A
O6          Ni10   1.920       .  S
O6           C13   1.281       .  A
O7          Ni10   1.910       .  S
O7           C12   1.279       .  A
O8          Ni10   1.903       .  S
O8           C11   1.278       .  A
Ni9         Ni10   2.388       .  S
C11         C305   1.479       .  S
C12         C329   1.479       .  S
C13         C362   1.476       .  S
C14         C281   1.479       .  S
O15         Ni23   1.915       .  S
O15          C25   1.282       .  A
O16         Ni23   1.918       .  S
O16          C26   1.281       .  A
O17         Ni23   1.921       .  S
O17          C27   1.281       .  A
O18         Ni23   1.921       .  S
O18          C28   1.281       .  A
O19         Ni24   1.923       .  S
O19          C28   1.281       .  A
O20         Ni24   1.923       .  S
O20          C27   1.282       .  A
O21         Ni24   1.912       .  S
O21          C26   1.280       .  A
O22         Ni24   1.904       .  S
O22          C25   1.279       .  A
Ni23        Ni24   2.389       .  S
C25         C314   1.477       .  S
C26         C338   1.475       .  S
C27         C266   1.477       .  S
C28         C233   1.478       .  S
O29         Ni37   1.917       .  S
O29          C39   1.283       .  A
O30         Ni37   1.924       .  S
O30          C40   1.283       .  A
O31         Ni37   1.918       .  S
O31         C785   1.281       .  A
O32         Ni37   1.916       .  S
O32          C42   1.280       .  A
O33         Ni38   1.928   1_655  S
O33         C786   1.283       .  A
O34         Ni38   1.921       .  S
O34          C41   1.282       .  A
O35         Ni38   1.911       .  S
O35         C784   1.279   1_455  A
O36         Ni38   1.911       .  S
O36         C783   1.279   1_455  A
Ni37       Ni782   2.387       .  S
Ni38       Ni781   2.387   1_455  S
C39         O780   1.279       .  A
C39         C209   1.485       .  S
C40         O779   1.279       .  A
C40         C185   1.476       .  S
C41         O775   1.281   1_455  A
C41         C161   1.481       .  S
C42         O777   1.283       .  A
C42         C290   1.480       .  S
O43         Ni51   1.918       .  S
O43          C53   1.282       .  A
O44         Ni51   1.923       .  S
O44          C54   1.282       .  A
O45         Ni51   1.918       .  S
O45         C799   1.281   1_455  A
O46         Ni51   1.919       .  S
O46          C56   1.281       .  A
O47         Ni52   1.927       .  S
O47         C800   1.283       .  A
O48         Ni52   1.925       .  S
O48          C55   1.283       .  A
O49         Ni52   1.912       .  S
O49         C798   1.279       .  A
O50         Ni52   1.911       .  S
O50         C797   1.280       .  A
Ni51       Ni796   2.388   1_455  S
Ni52       Ni795   2.388       .  S
C53         O794   1.280   1_455  A
C53         C218   1.481       .  S
C54         O793   1.279   1_455  A
C54         C194   1.468       .  S
C55         O789   1.281       .  A
C55         C137   1.485       .  S
C56         O791   1.283       .  A
C56         C242   1.483       .  S
O57         Ni65   1.915       .  S
O57          C67   1.281   1_554  A
O58         Ni65   1.915       .  S
O58          C68   1.281       .  A
O59         Ni65   1.919       .  S
O59         C441   1.281   1_545  A
O60         Ni65   1.918   1_556  S
O60          C70   1.280       .  A
O61         Ni66   1.921       .  S
O61         C442   1.283       .  A
O62         Ni66   1.919   1_554  S
O62          C69   1.281       .  A
O63         Ni66   1.915       .  S
O63         C440   1.280   1_556  A
O64         Ni66   1.914       .  S
O64         C439   1.281       .  A
Ni65       Ni438   2.385   1_544  S
Ni66       Ni437   2.385   1_556  S
C67         O436   1.281   1_545  A
C67          C98   1.485       .  S
C68         O435   1.280   1_544  A
C68         C113   1.480       .  S
C69         O431   1.281       .  A
C69         C353   1.475       .  S
C70         O433   1.283       .  A
C70         C146   1.492       .  S
O71         Ni79   1.915       .  S
O71         C453   1.281   1_554  A
O72         Ni79   1.913       .  S
O72         C454   1.280   1_554  A
O73         Ni79   1.922       .  S
O73         C455   1.282       .  A
O74         Ni79   1.922   1_556  S
O74          C84   1.283       .  A
O75         Ni80   1.918       .  S
O75         C456   1.281   1_545  A
O76         Ni80   1.922   1_554  S
O76          C83   1.282       .  A
O77         Ni80   1.919       .  S
O77          C82   1.281       .  A
O78         Ni80   1.913       .  S
O78          C81   1.281       .  A
Ni79       Ni452   2.387   1_554  S
Ni80       Ni451   2.387   1_546  S
C81         O443   1.281   1_546  A
C81          C89   1.478       .  S
C82         O444   1.280   1_546  A
C82         C122   1.475   1_556  S
C83         O445   1.282       .  A
C83         C257   1.483       .  S
C84         O447   1.281       .  A
C84         C170   1.492       .  S
C85          C90   1.398       .  A
C85         C458   1.403   1_554  A
C85         H839   1.082       .  S
C86         C835   1.479   1_455  S
C86          C87   1.412   1_565  A
C86         C457   1.403   1_556  A
C87          C88   1.399       .  A
C87          S92   1.805       .  S
C88          C89   1.405       .  A
C88          H93   1.081       .  S
C89         C462   1.414   1_546  A
C90         C461   1.414   1_554  A
C90          S94   1.803       .  S
C91         C830   1.479       .  S
C91         C100   1.400   1_566  A
C91         C468   1.409       .  A
S92         H108   1.405       .  S
S94         H105   1.407       .  S
H95         C829   1.082       .  S
C96          C97   1.404       .  A
C96         C463   1.409       .  A
C96         S101   1.807       .  S
C97         C470   1.409       .  A
C97         H102   1.081       .  S
C98          C99   1.418   1_556  A
C98         C469   1.409   1_545  A
C99         C100   1.396       .  A
C99         S103   1.802       .  S
C100        H848   1.082       .  S
S101        H106   1.407       .  S
S103        H107   1.408       .  S
H104        C844   1.082       .  S
C109        C114   1.399       .  A
C109        C482   1.401       .  A
C109        H119   1.084       .  S
C110        C115   1.476   1_554  S
C110        C111   1.411       .  A
C110        C481   1.401   1_545  A
C111        C112   1.398       .  A
C111        S116   1.805   1_554  S
C112        C113   1.406       .  A
C112        H117   1.083       .  S
C113        C486   1.416   1_545  A
C114        C485   1.416       .  A
C114        S118   1.803       .  S
C115        C124   1.400   1_556  A
C115        C492   1.409       .  A
S116        H132   1.404   1_556  S
S118        H129   1.407       .  S
C120        C121   1.405       .  A
C120        C487   1.409       .  A
C120        S125   1.806       .  S
C121        C494   1.405   1_556  A
C121        H126   1.084       .  S
C122        C123   1.413       .  A
C122        C493   1.405   1_554  A
C123        C124   1.396       .  A
C123        S127   1.803   1_545  S
C124        H128   1.085   1_545  S
S125        H130   1.407       .  S
S127        H131   1.407   1_565  S
C133        C134   1.401       .  A
C133        C138   1.397       .  A
C133        H143   1.084       .  S
C134        C139   1.483       .  S
C134        C135   1.413       .  A
C135        C136   1.405       .  A
C135        S140   1.804       .  S
C136        C137   1.407       .  A
C136        H141   1.084       .  S
C137        C138   1.417       .  A
C138        S886   1.802       .  S
C139        C144   1.408       .  A
C139        C148   1.401       .  A
S140        H156   1.404       .  S
S142        C882   1.802       .  S
S142        H153   1.406       .  S
C144        C145   1.401       .  A
C144        S149   1.807       .  S
C145        C146   1.407       .  A
C145        H150   1.083       .  S
C146        C147   1.421       .  A
C147        C148   1.404       .  A
C147        S151   1.802       .  S
C148        H152   1.084       .  S
S149        H526   1.407   1_545  S
S151        H155   1.408       .  S
H154        S521   1.407       .  S
C157        C158   1.403       .  A
C157        C162   1.403       .  A
C157        H167   1.084       .  S
C158        C163   1.482       .  S
C158        C159   1.412       .  A
C159        C160   1.399       .  A
C159        S164   1.805       .  S
C160        C161   1.405       .  A
C160        H165   1.083       .  S
C161        C162   1.415       .  A
C162        S166   1.802       .  S
C163        C168   1.407       .  A
C163        C172   1.401       .  A
S164        H180   1.405       .  S
S166        H177   1.407       .  S
C168        C169   1.404       .  A
C168        S173   1.807       .  S
C169        C170   1.410       .  A
C169        H174   1.080       .  S
C170        C171   1.420       .  A
C171        C172   1.402       .  A
C171        S547   1.802       .  S
C172        H176   1.082       .  S
S173        H178   1.407       .  S
S175        C543   1.802   1_545  S
S175        H179   1.407       .  S
C181        C182   1.403       .  A
C181        C186   1.401       .  A
C181        H191   1.085       .  S
C182        C187   1.479       .  S
C182        C927   1.411       .  A
C183        C184   1.398       .  A
C183        C926   1.411   1_455  A
C183        S188   1.804       .  S
C184        C929   1.404   1_455  A
C184        H189   1.085       .  S
C185        C186   1.413       .  A
C185        C928   1.404       .  A
C186        S190   1.803       .  S
C187        C192   1.409       .  A
C187        C940   1.402       .  A
S188        H204   1.405       .  S
S190        H201   1.407       .  S
C192        C193   1.404       .  A
C192        S197   1.806       .  S
C193        C938   1.403       .  A
C193        H198   1.083       .  S
C194        C195   1.411       .  A
C194        C937   1.403   1_455  A
C195        C196   1.399       .  A
C195        S199   1.804       .  S
C196        C931   1.402   1_455  A
C196        H200   1.084       .  S
S197        H202   1.407       .  S
S199        H203   1.404       .  S
C205        C206   1.400       .  A
C205        C210   1.398       .  A
C205        H587   1.082       .  S
C206        C583   1.477       .  S
C206        C951   1.411   1_455  A
C207        C208   1.399       .  A
C207        C950   1.411       .  A
C207        S212   1.805       .  S
C208        C209   1.407       .  A
C208        H213   1.082       .  S
C209        C954   1.419       .  A
C210        C953   1.419   1_455  A
C210        S214   1.802       .  S
C211        C578   1.477   1_545  S
C211        C216   1.408       .  A
C211        C964   1.400   1_455  A
S212        H228   1.405       .  S
S214        H225   1.408       .  S
H215        C577   1.082       .  S
C216        C217   1.402       .  A
C216        S221   1.807       .  S
C217        C218   1.406       .  A
C217        H222   1.082       .  S
C218        C963   1.417   1_455  A
C219        C220   1.397       .  A
C219        C962   1.417       .  A
C219        S223   1.804       .  S
C220        C955   1.400       .  A
C220        H596   1.084       .  S
S221        H226   1.407       .  S
S223        H227   1.407       .  S
H224        C592   1.084       .  S
C229        C230   1.404       .  A
C229        C234   1.398       .  A
C229        H239   1.083       .  S
C230        C235   1.492       .  S
C230        C231   1.417       .  A
C231        C232   1.406       .  A
C231        S236   1.803       .  S
C232        C233   1.403       .  A
C232        H237   1.082       .  S
C233        C234   1.413       .  A
C234        S238   1.801       .  S
C235        C240   1.414       .  A
C235        C244   1.403       .  A
S236        H252   1.406       .  S
S238        H249   1.405       .  S
C240        C241   1.407       .  A
C240        S245   1.807       .  S
C241        C242   1.404       .  A
C241        H246   1.085       .  S
C242        C243   1.416       .  A
C243        C244   1.400       .  A
C243        S247   1.802       .  S
C244        H248   1.086       .  S
S245        H250   1.407       .  S
S247        H251   1.404       .  S
C253        C254   1.404       .  A
C253        C258   1.399       .  A
C253        H263   1.085       .  S
C254        C259   1.492       .  S
C254        C255   1.417       .  A
C255        C256   1.404       .  A
C255        S260   1.804       .  S
C256        C257   1.405       .  A
C256        H261   1.086       .  S
C257        C258   1.414       .  A
C258        S262   1.802       .  S
C259        C264   1.415       .  A
C259        C268   1.404       .  A
S260        H276   1.406       .  S
S262        H273   1.406       .  S
C264        C265   1.407       .  A
C264        S269   1.807       .  S
C265        C266   1.402       .  A
C265        H270   1.081       .  S
C266        C267   1.412       .  A
C267        C268   1.399       .  A
C267        S271   1.801       .  S
C268        H272   1.082       .  S
S269        H274   1.407       .  S
S271        H275   1.404       .  S
C277        C278   1.404       .  A
C277        C282   1.399       .  A
C277        H287   1.083       .  S
C278        C283   1.492       .  S
C278        C279   1.417       .  A
C279        C280   1.403       .  A
C279        S284   1.803       .  S
C280        C281   1.402       .  A
C280        H285   1.083       .  S
C281        C282   1.414       .  A
C282        S286   1.801       .  S
C283        C288   1.415       .  A
C283        C292   1.403       .  A
S284        H300   1.406       .  S
S286        H297   1.403       .  S
C288        C289   1.408       .  A
C288        S293   1.806       .  S
C289        C290   1.403       .  A
C289        H294   1.085       .  S
C290        C291   1.414       .  A
C291        C292   1.397       .  A
C291        S295   1.802       .  S
C292        H296   1.086       .  S
S293        H298   1.407       .  S
S295        H299   1.405       .  S
C301        C302   1.399       .  A
C301        C306   1.394       .  A
C301        H683   1.085       .  S
C302       C1423   1.474       .  S
C302        C303   1.411       .  A
C303        C304   1.397       .  A
C303       S1052   1.805       .  S
C304        C305   1.406       .  A
C304        H309   1.084       .  S
C305        C306   1.418       .  A
C306        S310   1.804       .  S
C307       C1418   1.474   1_445  S
C307        C312   1.409       .  A
C307        C316   1.399       .  A
S308       C1047   1.805   1_455  S
S308        H324   1.406       .  S
S310        H321   1.408       .  S
H311        C673   1.085       .  S
C312        C313   1.400       .  A
C312       S1061   1.807   1_455  S
C313        C314   1.406       .  A
C313        H318   1.083       .  S
C314        C315   1.417       .  A
C315        C316   1.394       .  A
C315        S319   1.804       .  S
C316        H692   1.084       .  S
S317       C1056   1.807       .  S
S317       H1066   1.407       .  S
S319        H323   1.408       .  S
H320        C688   1.084       .  S
H322       S1061   1.407   1_455  S
C325        C326   1.400       .  A
C325        C330   1.397       .  A
C325        H335   1.084       .  S
C326        C331   1.477       .  S
C326        C327   1.413       .  A
C327        C328   1.401       .  A
C327        S332   1.805       .  S
C328        C329   1.405       .  A
C328        H333   1.084       .  S
C329        C330   1.417       .  A
C330        S334   1.804       .  S
C331        C336   1.408       .  A
C331        C340   1.402       .  A
S332        H348   1.404       .  S
S334        H345   1.404       .  S
C336        C337   1.402       .  A
C336        S341   1.806       .  S
C337        C338   1.405       .  A
C337        H342   1.083       .  S
C338        C339   1.413       .  A
C339        C340   1.398       .  A
C339        S343   1.799       .  S
C340        H344   1.084       .  S
S341        H346   1.407       .  S
S343        H347   1.407       .  S
C349        C350   1.406       .  A
C349        C354   1.403       .  A
C349        H359   1.085       .  S
C350        C355   1.489       .  S
C350        C351   1.415       .  A
C351        C352   1.398       .  A
C351        S356   1.804       .  S
C352        C353   1.402       .  A
C352        H357   1.086       .  S
C353        C354   1.412       .  A
C354        S730   1.804       .  S
C355        C360   1.412       .  A
C355        C364   1.405       .  A
S356        H372   1.407       .  S
S358        C726   1.804       .  S
S358        H369   1.406       .  S
C360        C361   1.405       .  A
C360        S365   1.808       .  S
C361        C362   1.405       .  A
C361        H366   1.082       .  S
C362        C363   1.412       .  A
C363        C364   1.400       .  A
C363        S367   1.804       .  S
C364        H368   1.083       .  S
S365        H370   1.407       .  S
S367        H371   1.402       .  S
O373       Ni381   1.917       .  S
O373        C383   1.282       .  A
O374       Ni381   1.922       .  S
O374        C384   1.283       .  A
O375       Ni381   1.921       .  S
O375        C385   1.281       .  A
O376       Ni381   1.921       .  S
O376        C386   1.281       .  A
O377       Ni382   1.923       .  S
O377        C386   1.282       .  A
O378       Ni382   1.919       .  S
O378        C385   1.281       .  A
O379       Ni382   1.910       .  S
O379        C384   1.279       .  A
O380       Ni382   1.903       .  S
O380        C383   1.278       .  A
Ni381      Ni382   2.388       .  S
C383        C677   1.479       .  S
C384        C701   1.479       .  S
C385        C734   1.476       .  S
C386        C653   1.480       .  S
O387       Ni395   1.914       .  S
O387        C397   1.282       .  A
O388       Ni395   1.917       .  S
O388        C398   1.280       .  A
O389       Ni395   1.921       .  S
O389        C399   1.281       .  A
O390       Ni395   1.921       .  S
O390        C400   1.281       .  A
O391       Ni396   1.923       .  S
O391        C400   1.281       .  A
O392       Ni396   1.923       .  S
O392        C399   1.282       .  A
O393       Ni396   1.912       .  S
O393        C398   1.280       .  A
O394       Ni396   1.905       .  S
O394        C397   1.279       .  A
Ni395      Ni396   2.389       .  S
C397        C686   1.477       .  S
C398        C710   1.475       .  S
C399        C638   1.477       .  S
C400        C605   1.478       .  S
O401       Ni409   1.917       .  S
O401        C411   1.283       .  A
O402       Ni409   1.925       .  S
O402        C412   1.283       .  A
O403       Ni409   1.917       .  S
O403       C1157   1.281       .  A
O404       Ni409   1.916       .  S
O404        C414   1.280       .  A
O405       Ni410   1.928   1_655  S
O405       C1158   1.283       .  A
O406       Ni410   1.921       .  S
O406        C413   1.282       .  A
O407       Ni410   1.911       .  S
O407       C1156   1.280   1_455  A
O408       Ni410   1.912       .  S
O408       C1155   1.279   1_455  A
Ni409     Ni1154   2.387       .  S
Ni410     Ni1153   2.387   1_455  S
C411       O1152   1.279       .  A
C411        C581   1.486       .  S
C412       O1151   1.280       .  A
C412        C557   1.477       .  S
C413       O1147   1.281   1_455  A
C413        C533   1.481       .  S
C414       O1149   1.283       .  A
C414        C662   1.480       .  S
O415       Ni423   1.918       .  S
O415        C425   1.282       .  A
O416       Ni423   1.923       .  S
O416        C426   1.282       .  A
O417       Ni423   1.918       .  S
O417       C1171   1.281   1_455  A
O418       Ni423   1.920       .  S
O418        C428   1.281       .  A
O419       Ni424   1.927       .  S
O419       C1172   1.283       .  A
O420       Ni424   1.926       .  S
O420        C427   1.283       .  A
O421       Ni424   1.912       .  S
O421       C1170   1.279       .  A
O422       Ni424   1.911       .  S
O422       C1169   1.280       .  A
Ni423     Ni1168   2.388   1_455  S
Ni424     Ni1167   2.388       .  S
C425       O1166   1.280   1_455  A
C425        C590   1.480       .  S
C426       O1165   1.279   1_455  A
C426        C566   1.469       .  S
C427       O1161   1.281       .  A
C427        C509   1.486       .  S
C428       O1163   1.283       .  A
C428        C614   1.483       .  S
O429       Ni437   1.915       .  S
O429        C439   1.281   1_554  A
O430       Ni437   1.915       .  S
O430        C440   1.281       .  A
O431       Ni437   1.919       .  S
O432       Ni437   1.918   1_556  S
O432        C442   1.280       .  A
O433       Ni438   1.921   1_545  S
O434       Ni438   1.919   1_554  S
O434        C441   1.281       .  A
O435       Ni438   1.915       .  S
O436       Ni438   1.914       .  S
C439        C470   1.486       .  S
C440        C485   1.480       .  S
C441        C725   1.475       .  S
C442        C518   1.492       .  S
O443       Ni451   1.915       .  S
O444       Ni451   1.913       .  S
O445       Ni451   1.922   1_545  S
O446       Ni451   1.922   1_556  S
O446        C456   1.283       .  A
O447       Ni452   1.918       .  S
O448       Ni452   1.922   1_554  S
O448        C455   1.282       .  A
O449       Ni452   1.919       .  S
O449        C454   1.281       .  A
O450       Ni452   1.913       .  S
O450        C453   1.281       .  A
C453        C461   1.477       .  S
C454        C494   1.474   1_556  S
C455        C629   1.483       .  S
C456        C542   1.492       .  S
C457        C462   1.398       .  A
C457       H1211   1.080       .  S
C458       C1207   1.479   1_455  S
C458        C459   1.413       .  A
C459        C460   1.399       .  A
C459        S464   1.805       .  S
C460        C461   1.405       .  A
C460        H465   1.082       .  S
C462        S466   1.803       .  S
C463       C1202   1.479       .  S
C463        C472   1.400   1_556  A
S464        H480   1.405       .  S
S466        H477   1.407   1_565  S
H467       C1201   1.080       .  S
C468        C469   1.404       .  A
C468        S473   1.807       .  S
C469        H474   1.080       .  S
C470        C471   1.418   1_556  A
C471        C472   1.396       .  A
C471        S475   1.802       .  S
C472       H1220   1.083       .  S
S473        H478   1.407       .  S
S475        H479   1.408       .  S
H476       C1216   1.083       .  S
C481        C486   1.399       .  A
C481        H491   1.084       .  S
C482        C487   1.476   1_554  S
C482        C483   1.411       .  A
C483        C484   1.398       .  A
C483        S488   1.805   1_554  S
C484        C485   1.406       .  A
C484        H489   1.083       .  S
C486        S490   1.803       .  S
C487        C496   1.399   1_556  A
S488        H504   1.404   1_556  S
S490        H501   1.407       .  S
C492        C493   1.404       .  A
C492        S497   1.806       .  S
C493        H498   1.084       .  S
C494        C495   1.413       .  A
C495        C496   1.396       .  A
C495        S499   1.803       .  S
C496        H500   1.085       .  S
S497        H502   1.407       .  S
S499        H503   1.407       .  S
C505        C506   1.401       .  A
C505        C510   1.397       .  A
C505        H515   1.084       .  S
C506        C511   1.483       .  S
C506        C507   1.413       .  A
C507        C508   1.405       .  A
C507        S512   1.804       .  S
C508        C509   1.407       .  A
C508        H513   1.084       .  S
C509        C510   1.416       .  A
C510       S1258   1.802       .  S
C511        C516   1.408       .  A
C511        C520   1.401       .  A
S512        H528   1.405       .  S
S514       C1254   1.802       .  S
S514        H525   1.406       .  S
C516        C517   1.401       .  A
C516        S521   1.807       .  S
C517        C518   1.407       .  A
C517        H522   1.083       .  S
C518        C519   1.421       .  A
C519        C520   1.404       .  A
C519        S523   1.802       .  S
C520        H524   1.084       .  S
S523        H527   1.408       .  S
C529        C530   1.403       .  A
C529        C534   1.403       .  A
C529        H539   1.084       .  S
C530        C535   1.482       .  S
C530        C531   1.412       .  A
C531        C532   1.399       .  A
C531        S536   1.805       .  S
C532        C533   1.405       .  A
C532        H537   1.084       .  S
C533        C534   1.414       .  A
C534        S538   1.802       .  S
C535        C540   1.407       .  A
C535        C544   1.401       .  A
S536        H552   1.405       .  S
S538        H549   1.407       .  S
C540        C541   1.404       .  A
C540        S545   1.807       .  S
C541        C542   1.410       .  A
C541        H546   1.080       .  S
C542        C543   1.420       .  A
C543        C544   1.402       .  A
C544        H548   1.082       .  S
S545        H550   1.407       .  S
S547        H551   1.407       .  S
C553        C554   1.403       .  A
C553        C558   1.401       .  A
C553        H563   1.085       .  S
C554        C559   1.479       .  S
C554       C1299   1.411       .  A
C555       C1298   1.411   1_455  A
C555        C556   1.398       .  A
C555        S560   1.804       .  S
C556       C1301   1.404   1_455  A
C556        H561   1.085       .  S
C557       C1300   1.404       .  A
C557        C558   1.413       .  A
C558        S562   1.803       .  S
C559        C564   1.409       .  A
C559       C1312   1.402       .  A
S560        H576   1.405       .  S
S562        H573   1.407       .  S
C564        C565   1.404       .  A
C564        S569   1.805       .  S
C565       C1310   1.403       .  A
C565        H570   1.083       .  S
C566       C1309   1.403   1_455  A
C566        C567   1.411       .  A
C567        C568   1.399       .  A
C567        S571   1.804       .  S
C568       C1303   1.402   1_455  A
C568        H572   1.084       .  S
S569        H574   1.407       .  S
S571        H575   1.403       .  S
C577        C578   1.400       .  A
C577        C582   1.398       .  A
C578       C1323   1.411   1_455  A
C579       C1322   1.411       .  A
C579        C580   1.399       .  A
C579        S584   1.805       .  S
C580        C581   1.408       .  A
C580        H585   1.081       .  S
C581       C1326   1.419       .  A
C582       C1325   1.419   1_455  A
C582        S586   1.802       .  S
C583        C588   1.408       .  A
C583       C1336   1.400   1_455  A
S584        H600   1.405       .  S
S586        H597   1.408       .  S
C588        C589   1.402       .  A
C588        S593   1.807       .  S
C589        C590   1.406       .  A
C589        H594   1.083       .  S
C590       C1335   1.417   1_455  A
C591       C1334   1.417       .  A
C591        C592   1.397       .  A
C591        S595   1.804       .  S
C592       C1327   1.400       .  A
S593        H598   1.407       .  S
S595        H599   1.407       .  S
C601        C602   1.404       .  A
C601        C606   1.398       .  A
C601        H611   1.083       .  S
C602        C607   1.492       .  S
C602        C603   1.417       .  A
C603        C604   1.406       .  A
C603        S608   1.803       .  S
C604        C605   1.403       .  A
C604        H609   1.082       .  S
C605        C606   1.413       .  A
C606        S610   1.801       .  S
C607        C612   1.414       .  A
C607        C616   1.403       .  A
S608        H624   1.406       .  S
S610        H621   1.405       .  S
C612        C613   1.406       .  A
C612        S617   1.807       .  S
C613        C614   1.403       .  A
C613        H618   1.085       .  S
C614        C615   1.416       .  A
C615        C616   1.400       .  A
C615        S619   1.802       .  S
C616        H620   1.086       .  S
S617        H622   1.407       .  S
S619        H623   1.404       .  S
C625        C626   1.404       .  A
C625        C630   1.399       .  A
C625        H635   1.085       .  S
C626        C631   1.493       .  S
C626        C627   1.416       .  A
C627        C628   1.404       .  A
C627        S632   1.804       .  S
C628        C629   1.405       .  A
C628        H633   1.086       .  S
C629        C630   1.414       .  A
C630        S634   1.803       .  S
C631        C636   1.415       .  A
C631        C640   1.405       .  A
S632        H648   1.406       .  S
S634        H645   1.405       .  S
C636        C637   1.407       .  A
C636        S641   1.807       .  S
C637        C638   1.402       .  A
C637        H642   1.081       .  S
C638        C639   1.412       .  A
C639        C640   1.399       .  A
C639        S643   1.801       .  S
C640        H644   1.082       .  S
S641        H646   1.407       .  S
S643        H647   1.404       .  S
C649        C650   1.404       .  A
C649        C654   1.399       .  A
C649        H659   1.083       .  S
C650        C655   1.492       .  S
C650        C651   1.417       .  A
C651        C652   1.403       .  A
C651        S656   1.803       .  S
C652        C653   1.403       .  A
C652        H657   1.083       .  S
C653        C654   1.414       .  A
C654        S658   1.801       .  S
C655        C660   1.415       .  A
C655        C664   1.403       .  A
S656        H672   1.406       .  S
S658        H669   1.403       .  S
C660        C661   1.408       .  A
C660        S665   1.807       .  S
C661        C662   1.403       .  A
C661        H666   1.085       .  S
C662        C663   1.414       .  A
C663        C664   1.397       .  A
C663        S667   1.802       .  S
C664        H668   1.086       .  S
S665        H670   1.407       .  S
S667        H671   1.404       .  S
C673        C674   1.399       .  A
C673        C678   1.394       .  A
C674       C1051   1.474   1_565  S
C674        C675   1.411       .  A
C675        C676   1.397       .  A
C675       S1424   1.805       .  S
C676        C677   1.406       .  A
C676        H681   1.084       .  S
C677        C678   1.418       .  A
C678        S682   1.804       .  S
C679       C1046   1.474   1_455  S
C679        C684   1.408       .  A
C679        C688   1.399       .  A
S680       C1419   1.805   1_455  S
S680        H696   1.406       .  S
S682        H693   1.408       .  S
C684        C685   1.400       .  A
C684       S1433   1.807   1_455  S
C685        C686   1.406       .  A
C685        H690   1.083       .  S
C686        C687   1.417       .  A
C687        C688   1.394       .  A
C687        S691   1.804       .  S
S689       C1428   1.807       .  S
S689       H1438   1.407       .  S
S691        H695   1.407       .  S
H694       S1433   1.407   1_455  S
C697        C698   1.400       .  A
C697        C702   1.397       .  A
C697        H707   1.084       .  S
C698        C703   1.477       .  S
C698        C699   1.413       .  A
C699        C700   1.401       .  A
C699        S704   1.806       .  S
C700        C701   1.405       .  A
C700        H705   1.084       .  S
C701        C702   1.417       .  A
C702        S706   1.804       .  S
C703        C708   1.408       .  A
C703        C712   1.402       .  A
S704        H720   1.404       .  S
S706        H717   1.404       .  S
C708        C709   1.402       .  A
C708        S713   1.806       .  S
C709        C710   1.404       .  A
C709        H714   1.083       .  S
C710        C711   1.412       .  A
C711        C712   1.398       .  A
C711        S715   1.799       .  S
C712        H716   1.084       .  S
S713        H718   1.407       .  S
S715        H719   1.407       .  S
C721        C722   1.406       .  A
C721        C726   1.403       .  A
C721        H731   1.085       .  S
C722        C727   1.489       .  S
C722        C723   1.415       .  A
C723        C724   1.398       .  A
C723        S728   1.805       .  S
C724        C725   1.402       .  A
C724        H729   1.086       .  S
C725        C726   1.412       .  A
C727        C732   1.412       .  A
C727        C736   1.405       .  A
S728        H744   1.407       .  S
S730        H741   1.406       .  S
C732        C733   1.405       .  A
C732        S737   1.808       .  S
C733        C734   1.405       .  A
C733        H738   1.082       .  S
C734        C735   1.412       .  A
C735        C736   1.400       .  A
C735        S739   1.804       .  S
C736        H740   1.083       .  S
S737        H742   1.407       .  S
S739        H743   1.402       .  S
O745       Ni753   1.917       .  S
O745        C755   1.282       .  A
O746       Ni753   1.922       .  S
O746        C756   1.283       .  A
O747       Ni753   1.920       .  S
O747        C757   1.281       .  A
O748       Ni753   1.920       .  S
O748        C758   1.281       .  A
O749       Ni754   1.923       .  S
O749        C758   1.282       .  A
O750       Ni754   1.920       .  S
O750        C757   1.281       .  A
O751       Ni754   1.910       .  S
O751        C756   1.279       .  A
O752       Ni754   1.903       .  S
O752        C755   1.278       .  A
Ni753      Ni754   2.388       .  S
C755       C1049   1.479       .  S
C756       C1073   1.479       .  S
C757       C1106   1.476       .  S
C758       C1025   1.479       .  S
O759       Ni767   1.915       .  S
O759        C769   1.282       .  A
O760       Ni767   1.918       .  S
O760        C770   1.281       .  A
O761       Ni767   1.921       .  S
O761        C771   1.281       .  A
O762       Ni767   1.921       .  S
O762        C772   1.281       .  A
O763       Ni768   1.923       .  S
O763        C772   1.281       .  A
O764       Ni768   1.923       .  S
O764        C771   1.282       .  A
O765       Ni768   1.912       .  S
O765        C770   1.280       .  A
O766       Ni768   1.904       .  S
O766        C769   1.279       .  A
Ni767      Ni768   2.389       .  S
C769       C1058   1.477       .  S
C770       C1082   1.475       .  S
C771       C1010   1.477       .  S
C772        C977   1.478       .  S
O773       Ni781   1.917       .  S
O773        C783   1.283       .  A
O774       Ni781   1.924       .  S
O774        C784   1.283       .  A
O775       Ni781   1.918       .  S
O776       Ni781   1.916       .  S
O776        C786   1.280       .  A
O777       Ni782   1.928       .  S
O778       Ni782   1.921       .  S
O778        C785   1.282       .  A
O779       Ni782   1.911       .  S
O780       Ni782   1.911       .  S
C783        C953   1.485       .  S
C784        C929   1.476       .  S
C785        C905   1.481       .  S
C786       C1034   1.480       .  S
O787       Ni795   1.918       .  S
O787        C797   1.282       .  A
O788       Ni795   1.923       .  S
O788        C798   1.282       .  A
O789       Ni795   1.918       .  S
O790       Ni795   1.919       .  S
O790        C800   1.281       .  A
O791       Ni796   1.927   1_455  S
O792       Ni796   1.925       .  S
O792        C799   1.283       .  A
O793       Ni796   1.912       .  S
O794       Ni796   1.911       .  S
C797        C962   1.481       .  S
C798        C938   1.468       .  S
C799        C881   1.485       .  S
C800        C986   1.483       .  S
O801       Ni809   1.915       .  S
O801        C811   1.281   1_554  A
O802       Ni809   1.915       .  S
O802        C812   1.281       .  A
O803       Ni809   1.919       .  S
O803       C1185   1.281   1_545  A
O804       Ni809   1.918   1_556  S
O804        C814   1.280       .  A
O805       Ni810   1.921       .  S
O805       C1186   1.283       .  A
O806       Ni810   1.919   1_554  S
O806        C813   1.281       .  A
O807       Ni810   1.915       .  S
O807       C1184   1.280   1_556  A
O808       Ni810   1.914       .  S
O808       C1183   1.281       .  A
Ni809     Ni1182   2.385   1_544  S
Ni810     Ni1181   2.385   1_556  S
C811       O1180   1.281   1_545  A
C811        C842   1.485       .  S
C812       O1179   1.280   1_544  A
C812        C857   1.480       .  S
C813       O1175   1.281       .  A
C813       C1097   1.475       .  S
C814       O1177   1.283       .  A
C814        C890   1.492       .  S
O815       Ni823   1.915       .  S
O815       C1197   1.281   1_554  A
O816       Ni823   1.913       .  S
O816       C1198   1.280   1_554  A
O817       Ni823   1.922       .  S
O817       C1199   1.282       .  A
O818       Ni823   1.922   1_556  S
O818        C828   1.283       .  A
O819       Ni824   1.918       .  S
O819       C1200   1.281   1_545  A
O820       Ni824   1.922   1_554  S
O820        C827   1.282       .  A
O821       Ni824   1.919       .  S
O821        C826   1.281       .  A
O822       Ni824   1.913       .  S
O822        C825   1.281       .  A
Ni823     Ni1196   2.387   1_554  S
Ni824     Ni1195   2.387   1_546  S
C825       O1187   1.281   1_546  A
C825        C833   1.478       .  S
C826       O1188   1.280   1_546  A
C826        C866   1.475   1_556  S
C827       O1189   1.282       .  A
C827       C1001   1.483       .  S
C828       O1191   1.281       .  A
C828        C914   1.492       .  S
C829       C1202   1.403   1_554  A
C829        C834   1.398       .  A
C830       C1201   1.403   1_556  A
C830        C831   1.412   1_565  A
C831        C832   1.399       .  A
C831        S836   1.805       .  S
C832        C833   1.405       .  A
C832        H837   1.081       .  S
C833       C1206   1.414   1_546  A
C834       C1205   1.414   1_554  A
C834        S838   1.803       .  S
C835       C1212   1.409       .  A
C835        C844   1.400   1_566  A
S836        H852   1.405       .  S
S838        H849   1.407       .  S
C840       C1207   1.409       .  A
C840        C841   1.404       .  A
C840        S845   1.807       .  S
C841       C1214   1.409       .  A
C841        H846   1.081       .  S
C842       C1213   1.409   1_545  A
C842        C843   1.418   1_556  A
C843        C844   1.396       .  A
C843        S847   1.802       .  S
S845        H850   1.407       .  S
S847        H851   1.408       .  S
C853       C1226   1.401       .  A
C853        C858   1.399       .  A
C853        H863   1.084       .  S
C854        C859   1.476   1_554  S
C854       C1225   1.401   1_545  A
C854        C855   1.411       .  A
C855        C856   1.398       .  A
C855        S860   1.805   1_554  S
C856        C857   1.406       .  A
C856        H861   1.083       .  S
C857       C1230   1.416   1_545  A
C858       C1229   1.416       .  A
C858        S862   1.803       .  S
C859       C1236   1.409       .  A
C859        C868   1.400   1_556  A
S860        H876   1.404   1_556  S
S862        H873   1.407       .  S
C864       C1231   1.409       .  A
C864        C865   1.405       .  A
C864        S869   1.806       .  S
C865       C1238   1.405   1_556  A
C865        H870   1.084       .  S
C866       C1237   1.405   1_554  A
C866        C867   1.413       .  A
C867        C868   1.396       .  A
C867        S871   1.803   1_545  S
C868        H872   1.085   1_545  S
S869        H874   1.407       .  S
S871        H875   1.407   1_565  S
C877        C878   1.401       .  A
C877        C882   1.397       .  A
C877        H887   1.084       .  S
C878        C883   1.483       .  S
C878        C879   1.413       .  A
C879        C880   1.405       .  A
C879        S884   1.804       .  S
C880        C881   1.407       .  A
C880        H885   1.084       .  S
C881        C882   1.417       .  A
C883        C888   1.408       .  A
C883        C892   1.401       .  A
S884        H900   1.404       .  S
S886        H897   1.406       .  S
C888        C889   1.401       .  A
C888        S893   1.807       .  S
C889        C890   1.407       .  A
C889        H894   1.083       .  S
C890        C891   1.421       .  A
C891        C892   1.404       .  A
C891        S895   1.802       .  S
C892        H896   1.084       .  S
S893       H1270   1.407   1_545  S
S895        H899   1.408       .  S
H898       S1265   1.407       .  S
C901        C902   1.403       .  A
C901        C906   1.403       .  A
C901        H911   1.084       .  S
C902        C907   1.482       .  S
C902        C903   1.412       .  A
C903        C904   1.399       .  A
C903        S908   1.805       .  S
C904        C905   1.405       .  A
C904        H909   1.083       .  S
C905        C906   1.415       .  A
C906        S910   1.802       .  S
C907        C912   1.407       .  A
C907        C916   1.401       .  A
S908        H924   1.405       .  S
S910        H921   1.407       .  S
C912        C913   1.404       .  A
C912        S917   1.807       .  S
C913        C914   1.410       .  A
C913        H918   1.080       .  S
C914        C915   1.420       .  A
C915        C916   1.402       .  A
C915       S1291   1.802       .  S
C916        H920   1.081       .  S
S917        H922   1.407       .  S
S919       C1287   1.802   1_545  S
S919        H923   1.407       .  S
C925        C926   1.403       .  A
C925        C930   1.401       .  A
C925        H935   1.085       .  S
C926        C931   1.479       .  S
C927        C928   1.398       .  A
C927        S932   1.804       .  S
C928        H933   1.085       .  S
C929        C930   1.413       .  A
C930        S934   1.803       .  S
C931        C936   1.409       .  A
S932        H948   1.405       .  S
S934        H945   1.407       .  S
C936        C937   1.404       .  A
C936        S941   1.806       .  S
C937        H942   1.083       .  S
C938        C939   1.411       .  A
C939        C940   1.399       .  A
C939        S943   1.804       .  S
C940        H944   1.084       .  S
S941        H946   1.407       .  S
S943        H947   1.404       .  S
C949        C950   1.400       .  A
C949        C954   1.398       .  A
C949       H1331   1.082       .  S
C950       C1327   1.477       .  S
C951        C952   1.399       .  A
C951        S956   1.805       .  S
C952        C953   1.407       .  A
C952        H957   1.082       .  S
C954        S958   1.802       .  S
C955       C1322   1.477   1_545  S
C955        C960   1.408       .  A
S956        H972   1.405       .  S
S958        H969   1.408       .  S
H959       C1321   1.082       .  S
C960        C961   1.402       .  A
C960        S965   1.807       .  S
C961        C962   1.406       .  A
C961        H966   1.082       .  S
C963        C964   1.397       .  A
C963        S967   1.804       .  S
C964       H1340   1.084       .  S
S965        H970   1.407       .  S
S967        H971   1.407   1_655  S
H968       C1336   1.084       .  S
C973        C974   1.404       .  A
C973        C978   1.398       .  A
C973        H983   1.083       .  S
C974        C979   1.492       .  S
C974        C975   1.417       .  A
C975        C976   1.406       .  A
C975        S980   1.803       .  S
C976        C977   1.403       .  A
C976        H981   1.082       .  S
C977        C978   1.413       .  A
C978        S982   1.801       .  S
C979        C984   1.414       .  A
C979        C988   1.403       .  A
S980        H996   1.406       .  S
S982        H993   1.405       .  S
C984        C985   1.407       .  A
C984        S989   1.807       .  S
C985        C986   1.404       .  A
C985        H990   1.085       .  S
C986        C987   1.416       .  A
C987        C988   1.400       .  A
C987        S991   1.802       .  S
C988        H992   1.086       .  S
S989        H994   1.407       .  S
S991        H995   1.404       .  S
C997        C998   1.404       .  A
C997       C1002   1.399       .  A
C997       H1007   1.085       .  S
C998       C1003   1.492       .  S
C998        C999   1.417       .  A
C999       C1000   1.404       .  A
C999       S1004   1.804       .  S
C1000      C1001   1.405       .  A
C1000      H1005   1.086       .  S
C1001      C1002   1.414       .  A
C1002      S1006   1.802       .  S
C1003      C1008   1.415       .  A
C1003      C1012   1.404       .  A
S1004      H1020   1.406       .  S
S1006      H1017   1.406       .  S
C1008      C1009   1.407       .  A
C1008      S1013   1.807       .  S
C1009      C1010   1.402       .  A
C1009      H1014   1.081       .  S
C1010      C1011   1.412       .  A
C1011      C1012   1.399       .  A
C1011      S1015   1.801       .  S
C1012      H1016   1.082       .  S
S1013      H1018   1.407       .  S
S1015      H1019   1.404       .  S
C1021      C1022   1.404       .  A
C1021      C1026   1.399       .  A
C1021      H1031   1.083       .  S
C1022      C1027   1.492       .  S
C1022      C1023   1.417       .  A
C1023      C1024   1.403       .  A
C1023      S1028   1.803       .  S
C1024      C1025   1.402       .  A
C1024      H1029   1.083       .  S
C1025      C1026   1.414       .  A
C1026      S1030   1.801       .  S
C1027      C1032   1.415       .  A
C1027      C1036   1.403       .  A
S1028      H1044   1.406       .  S
S1030      H1041   1.403       .  S
C1032      C1033   1.408       .  A
C1032      S1037   1.806       .  S
C1033      C1034   1.403       .  A
C1033      H1038   1.085       .  S
C1034      C1035   1.414       .  A
C1035      C1036   1.397       .  A
C1035      S1039   1.802       .  S
C1036      H1040   1.086       .  S
S1037      H1042   1.407       .  S
S1039      H1043   1.405       .  S
C1045      C1046   1.399       .  A
C1045      C1050   1.394       .  A
C1045      H1427   1.085       .  S
C1046      C1047   1.411       .  A
C1047      C1048   1.397       .  A
C1048      C1049   1.406       .  A
C1048      H1053   1.084       .  S
C1049      C1050   1.418       .  A
C1050      S1054   1.804       .  S
C1051      C1056   1.409       .  A
C1051      C1060   1.399       .  A
S1052      H1068   1.406       .  S
S1054      H1065   1.408       .  S
H1055      C1417   1.085       .  S
C1056      C1057   1.400       .  A
C1057      C1058   1.406       .  A
C1057      H1062   1.083       .  S
C1058      C1059   1.417       .  A
C1059      C1060   1.394       .  A
C1059      S1063   1.804       .  S
C1060      H1436   1.084       .  S
S1063      H1067   1.408       .  S
H1064      C1432   1.084       .  S
C1069      C1070   1.400       .  A
C1069      C1074   1.397       .  A
C1069      H1079   1.084       .  S
C1070      C1075   1.477       .  S
C1070      C1071   1.413       .  A
C1071      C1072   1.401       .  A
C1071      S1076   1.805       .  S
C1072      C1073   1.405       .  A
C1072      H1077   1.084       .  S
C1073      C1074   1.417       .  A
C1074      S1078   1.804       .  S
C1075      C1080   1.408       .  A
C1075      C1084   1.402       .  A
S1076      H1092   1.404       .  S
S1078      H1089   1.404       .  S
C1080      C1081   1.402       .  A
C1080      S1085   1.806       .  S
C1081      C1082   1.405       .  A
C1081      H1086   1.083       .  S
C1082      C1083   1.413       .  A
C1083      C1084   1.398       .  A
C1083      S1087   1.799       .  S
C1084      H1088   1.084       .  S
S1085      H1090   1.407       .  S
S1087      H1091   1.407       .  S
C1093      C1094   1.406       .  A
C1093      C1098   1.403       .  A
C1093      H1103   1.085       .  S
C1094      C1099   1.489       .  S
C1094      C1095   1.415       .  A
C1095      C1096   1.398       .  A
C1095      S1100   1.804       .  S
C1096      C1097   1.402       .  A
C1096      H1101   1.086       .  S
C1097      C1098   1.412       .  A
C1098      S1474   1.804       .  S
C1099      C1104   1.412       .  A
C1099      C1108   1.405       .  A
S1100      H1116   1.407       .  S
S1102      C1470   1.804       .  S
S1102      H1113   1.406       .  S
C1104      C1105   1.405       .  A
C1104      S1109   1.808       .  S
C1105      C1106   1.405       .  A
C1105      H1110   1.082       .  S
C1106      C1107   1.412       .  A
C1107      C1108   1.400       .  A
C1107      S1111   1.804       .  S
C1108      H1112   1.083       .  S
S1109      H1114   1.407       .  S
S1111      H1115   1.402       .  S
O1117     Ni1125   1.917       .  S
O1117      C1127   1.282       .  A
O1118     Ni1125   1.922       .  S
O1118      C1128   1.283       .  A
O1119     Ni1125   1.921       .  S
O1119      C1129   1.281       .  A
O1120     Ni1125   1.921       .  S
O1120      C1130   1.281       .  A
O1121     Ni1126   1.923       .  S
O1121      C1130   1.282       .  A
O1122     Ni1126   1.919       .  S
O1122      C1129   1.281       .  A
O1123     Ni1126   1.910       .  S
O1123      C1128   1.279       .  A
O1124     Ni1126   1.903       .  S
O1124      C1127   1.278       .  A
Ni1125    Ni1126   2.388       .  S
C1127      C1421   1.479       .  S
C1128      C1445   1.479       .  S
C1129      C1478   1.476       .  S
C1130      C1397   1.480       .  S
O1131     Ni1139   1.914       .  S
O1131      C1141   1.282       .  A
O1132     Ni1139   1.917       .  S
O1132      C1142   1.280       .  A
O1133     Ni1139   1.921       .  S
O1133      C1143   1.281       .  A
O1134     Ni1139   1.921       .  S
O1134      C1144   1.281       .  A
O1135     Ni1140   1.923       .  S
O1135      C1144   1.281       .  A
O1136     Ni1140   1.923       .  S
O1136      C1143   1.282       .  A
O1137     Ni1140   1.912       .  S
O1137      C1142   1.280       .  A
O1138     Ni1140   1.905       .  S
O1138      C1141   1.279       .  A
Ni1139    Ni1140   2.389       .  S
C1141      C1430   1.477       .  S
C1142      C1454   1.475       .  S
C1143      C1382   1.477       .  S
C1144      C1349   1.478       .  S
O1145     Ni1153   1.917       .  S
O1145      C1155   1.283       .  A
O1146     Ni1153   1.925       .  S
O1146      C1156   1.283       .  A
O1147     Ni1153   1.917       .  S
O1148     Ni1153   1.916       .  S
O1148      C1158   1.280       .  A
O1149     Ni1154   1.928       .  S
O1150     Ni1154   1.921       .  S
O1150      C1157   1.282       .  A
O1151     Ni1154   1.911       .  S
O1152     Ni1154   1.912       .  S
C1155      C1325   1.486       .  S
C1156      C1301   1.477       .  S
C1157      C1277   1.481       .  S
C1158      C1406   1.480       .  S
O1159     Ni1167   1.918       .  S
O1159      C1169   1.282       .  A
O1160     Ni1167   1.923       .  S
O1160      C1170   1.282       .  A
O1161     Ni1167   1.918       .  S
O1162     Ni1167   1.920       .  S
O1162      C1172   1.281       .  A
O1163     Ni1168   1.927   1_455  S
O1164     Ni1168   1.926       .  S
O1164      C1171   1.283       .  A
O1165     Ni1168   1.912       .  S
O1166     Ni1168   1.911       .  S
C1169      C1334   1.480       .  S
C1170      C1310   1.469       .  S
C1171      C1253   1.486       .  S
C1172      C1358   1.483       .  S
O1173     Ni1181   1.915       .  S
O1173      C1183   1.281   1_554  A
O1174     Ni1181   1.915       .  S
O1174      C1184   1.281       .  A
O1175     Ni1181   1.919       .  S
O1176     Ni1181   1.918   1_556  S
O1176      C1186   1.280       .  A
O1177     Ni1182   1.921   1_545  S
O1178     Ni1182   1.919   1_554  S
O1178      C1185   1.281       .  A
O1179     Ni1182   1.915       .  S
O1180     Ni1182   1.914       .  S
C1183      C1214   1.486       .  S
C1184      C1229   1.480       .  S
C1185      C1469   1.475       .  S
C1186      C1262   1.492       .  S
O1187     Ni1195   1.915       .  S
O1188     Ni1195   1.913       .  S
O1189     Ni1195   1.922   1_545  S
O1190     Ni1195   1.922   1_556  S
O1190      C1200   1.283       .  A
O1191     Ni1196   1.918       .  S
O1192     Ni1196   1.922   1_554  S
O1192      C1199   1.282       .  A
O1193     Ni1196   1.919       .  S
O1193      C1198   1.281       .  A
O1194     Ni1196   1.913       .  S
O1194      C1197   1.281       .  A
C1197      C1205   1.477       .  S
C1198      C1238   1.474   1_556  S
C1199      C1373   1.483       .  S
C1200      C1286   1.492       .  S
C1201      C1206   1.398       .  A
C1202      C1203   1.413       .  A
C1203      C1204   1.399       .  A
C1203      S1208   1.805       .  S
C1204      C1205   1.405       .  A
C1204      H1209   1.082       .  S
C1206      S1210   1.803       .  S
C1207      C1216   1.400   1_556  A
S1208      H1224   1.405       .  S
S1210      H1221   1.407   1_565  S
C1212      C1213   1.404       .  A
C1212      S1217   1.807       .  S
C1213      H1218   1.080       .  S
C1214      C1215   1.418   1_556  A
C1215      C1216   1.396       .  A
C1215      S1219   1.802       .  S
S1217      H1222   1.407       .  S
S1219      H1223   1.408       .  S
C1225      C1230   1.399       .  A
C1225      H1235   1.084       .  S
C1226      C1231   1.476   1_554  S
C1226      C1227   1.411       .  A
C1227      C1228   1.398       .  A
C1227      S1232   1.805   1_554  S
C1228      C1229   1.406       .  A
C1228      H1233   1.083       .  S
C1230      S1234   1.803       .  S
C1231      C1240   1.399   1_556  A
S1232      H1248   1.404   1_556  S
S1234      H1245   1.407       .  S
C1236      C1237   1.404       .  A
C1236      S1241   1.806       .  S
C1237      H1242   1.084       .  S
C1238      C1239   1.413       .  A
C1239      C1240   1.396       .  A
C1239      S1243   1.803       .  S
C1240      H1244   1.085       .  S
S1241      H1246   1.407       .  S
S1243      H1247   1.407       .  S
C1249      C1250   1.401       .  A
C1249      C1254   1.397       .  A
C1249      H1259   1.084       .  S
C1250      C1255   1.483       .  S
C1250      C1251   1.413       .  A
C1251      C1252   1.405       .  A
C1251      S1256   1.804       .  S
C1252      C1253   1.407       .  A
C1252      H1257   1.083       .  S
C1253      C1254   1.416       .  A
C1255      C1260   1.408       .  A
C1255      C1264   1.401       .  A
S1256      H1272   1.405       .  S
S1258      H1269   1.406       .  S
C1260      C1261   1.401       .  A
C1260      S1265   1.807       .  S
C1261      C1262   1.407       .  A
C1261      H1266   1.083       .  S
C1262      C1263   1.421       .  A
C1263      C1264   1.404       .  A
C1263      S1267   1.802       .  S
C1264      H1268   1.084       .  S
S1267      H1271   1.408       .  S
C1273      C1274   1.403       .  A
C1273      C1278   1.403       .  A
C1273      H1283   1.084       .  S
C1274      C1279   1.482       .  S
C1274      C1275   1.412       .  A
C1275      C1276   1.399       .  A
C1275      S1280   1.805       .  S
C1276      C1277   1.405       .  A
C1276      H1281   1.084       .  S
C1277      C1278   1.414       .  A
C1278      S1282   1.802       .  S
C1279      C1284   1.407       .  A
C1279      C1288   1.401       .  A
S1280      H1296   1.405       .  S
S1282      H1293   1.407       .  S
C1284      C1285   1.404       .  A
C1284      S1289   1.807       .  S
C1285      C1286   1.410       .  A
C1285      H1290   1.080       .  S
C1286      C1287   1.420       .  A
C1287      C1288   1.402       .  A
C1288      H1292   1.082       .  S
S1289      H1294   1.407       .  S
S1291      H1295   1.407       .  S
C1297      C1298   1.403       .  A
C1297      C1302   1.401       .  A
C1297      H1307   1.085       .  S
C1298      C1303   1.479       .  S
C1299      C1300   1.398       .  A
C1299      S1304   1.804       .  S
C1300      H1305   1.085       .  S
C1301      C1302   1.413       .  A
C1302      S1306   1.803       .  S
C1303      C1308   1.409       .  A
S1304      H1320   1.405       .  S
S1306      H1317   1.407       .  S
C1308      C1309   1.404       .  A
C1308      S1313   1.805       .  S
C1309      H1314   1.083       .  S
C1310      C1311   1.411       .  A
C1311      C1312   1.399       .  A
C1311      S1315   1.804       .  S
C1312      H1316   1.084       .  S
S1313      H1318   1.407       .  S
S1315      H1319   1.403       .  S
C1321      C1322   1.400       .  A
C1321      C1326   1.398       .  A
C1323      C1324   1.399       .  A
C1323      S1328   1.805       .  S
C1324      C1325   1.408       .  A
C1324      H1329   1.081       .  S
C1326      S1330   1.802       .  S
C1327      C1332   1.408       .  A
S1328      H1344   1.405       .  S
S1330      H1341   1.408       .  S
C1332      C1333   1.402       .  A
C1332      S1337   1.807       .  S
C1333      C1334   1.406       .  A
C1333      H1338   1.082       .  S
C1335      C1336   1.397       .  A
C1335      S1339   1.804       .  S
S1337      H1342   1.407       .  S
S1339      H1343   1.407   1_655  S
C1345      C1346   1.404       .  A
C1345      C1350   1.398       .  A
C1345      H1355   1.083       .  S
C1346      C1351   1.492       .  S
C1346      C1347   1.417       .  A
C1347      C1348   1.406       .  A
C1347      S1352   1.803       .  S
C1348      C1349   1.403       .  A
C1348      H1353   1.082       .  S
C1349      C1350   1.413       .  A
C1350      S1354   1.801       .  S
C1351      C1356   1.414       .  A
C1351      C1360   1.403       .  A
S1352      H1368   1.406       .  S
S1354      H1365   1.405       .  S
C1356      C1357   1.406       .  A
C1356      S1361   1.807       .  S
C1357      C1358   1.403       .  A
C1357      H1362   1.085       .  S
C1358      C1359   1.416       .  A
C1359      C1360   1.400       .  A
C1359      S1363   1.802       .  S
C1360      H1364   1.086       .  S
S1361      H1366   1.407       .  S
S1363      H1367   1.404       .  S
C1369      C1370   1.404       .  A
C1369      C1374   1.399       .  A
C1369      H1379   1.085       .  S
C1370      C1375   1.493       .  S
C1370      C1371   1.416       .  A
C1371      C1372   1.404       .  A
C1371      S1376   1.804       .  S
C1372      C1373   1.405       .  A
C1372      H1377   1.086       .  S
C1373      C1374   1.414       .  A
C1374      S1378   1.803       .  S
C1375      C1380   1.415       .  A
C1375      C1384   1.405       .  A
S1376      H1392   1.406       .  S
S1378      H1389   1.405       .  S
C1380      C1381   1.407       .  A
C1380      S1385   1.807       .  S
C1381      C1382   1.402       .  A
C1381      H1386   1.081       .  S
C1382      C1383   1.412       .  A
C1383      C1384   1.399       .  A
C1383      S1387   1.801       .  S
C1384      H1388   1.082       .  S
S1385      H1390   1.407       .  S
S1387      H1391   1.404       .  S
C1393      C1394   1.404       .  A
C1393      C1398   1.399       .  A
C1393      H1403   1.083       .  S
C1394      C1399   1.492       .  S
C1394      C1395   1.417       .  A
C1395      C1396   1.403       .  A
C1395      S1400   1.803       .  S
C1396      C1397   1.403       .  A
C1396      H1401   1.083       .  S
C1397      C1398   1.414       .  A
C1398      S1402   1.801       .  S
C1399      C1404   1.415       .  A
C1399      C1408   1.403       .  A
S1400      H1416   1.406       .  S
S1402      H1413   1.403       .  S
C1404      C1405   1.408       .  A
C1404      S1409   1.807       .  S
C1405      C1406   1.403       .  A
C1405      H1410   1.085       .  S
C1406      C1407   1.414       .  A
C1407      C1408   1.397       .  A
C1407      S1411   1.802       .  S
C1408      H1412   1.086       .  S
S1409      H1414   1.407       .  S
S1411      H1415   1.404       .  S
C1417      C1418   1.399       .  A
C1417      C1422   1.394       .  A
C1418      C1419   1.411       .  A
C1419      C1420   1.397       .  A
C1420      C1421   1.406       .  A
C1420      H1425   1.084       .  S
C1421      C1422   1.418       .  A
C1422      S1426   1.804       .  S
C1423      C1428   1.408       .  A
C1423      C1432   1.399       .  A
S1424      H1440   1.406       .  S
S1426      H1437   1.408       .  S
C1428      C1429   1.400       .  A
C1429      C1430   1.406       .  A
C1429      H1434   1.083       .  S
C1430      C1431   1.417       .  A
C1431      C1432   1.394       .  A
C1431      S1435   1.804       .  S
S1435      H1439   1.407       .  S
C1441      C1442   1.400       .  A
C1441      C1446   1.397       .  A
C1441      H1451   1.084       .  S
C1442      C1447   1.477       .  S
C1442      C1443   1.413       .  A
C1443      C1444   1.401       .  A
C1443      S1448   1.806       .  S
C1444      C1445   1.405       .  A
C1444      H1449   1.084       .  S
C1445      C1446   1.417       .  A
C1446      S1450   1.804       .  S
C1447      C1452   1.408       .  A
C1447      C1456   1.402       .  A
S1448      H1464   1.404       .  S
S1450      H1461   1.404       .  S
C1452      C1453   1.402       .  A
C1452      S1457   1.806       .  S
C1453      C1454   1.404       .  A
C1453      H1458   1.083       .  S
C1454      C1455   1.412       .  A
C1455      C1456   1.398       .  A
C1455      S1459   1.799       .  S
C1456      H1460   1.084       .  S
S1457      H1462   1.407       .  S
S1459      H1463   1.407       .  S
C1465      C1466   1.406       .  A
C1465      C1470   1.403       .  A
C1465      H1475   1.085       .  S
C1466      C1471   1.489       .  S
C1466      C1467   1.415       .  A
C1467      C1468   1.398       .  A
C1467      S1472   1.805       .  S
C1468      C1469   1.402       .  A
C1468      H1473   1.086       .  S
C1469      C1470   1.412       .  A
C1471      C1476   1.412       .  A
C1471      C1480   1.405       .  A
S1472      H1488   1.407       .  S
S1474      H1485   1.406       .  S
C1476      C1477   1.405       .  A
C1476      S1481   1.808       .  S
C1477      C1478   1.405       .  A
C1477      H1482   1.082       .  S
C1478      C1479   1.412       .  A
C1479      C1480   1.400       .  A
C1479      S1483   1.804       .  S
C1480      H1484   1.083       .  S
S1481      H1486   1.407       .  S
S1483      H1487   1.402       .  S
