geometry optimzed in LAMMPS
_audit_creation_date              2020-12-01 
_audit_creation_method            'lammps2cif' 
_symmetry_space_group_name_H-M    'P1' 
_symmetry_Int_Tables_number       1 
_symmetry_cell_setting            triclinic 
loop_ 
_symmetry_equiv_pos_as_xyz 
  x,y,z 
_cell_length_a                    29.96296689 
_cell_length_b                    30.09677665700711 
_cell_length_c                    29.763599356237247 
_cell_angle_alpha                 89.52704408088961 
_cell_angle_beta                  90.24147067926904 
_cell_angle_gamma                 89.76512726066748 
loop_ 
_atom_site_label 
_atom_site_type_symbol 
_atom_site_fract_x 
_atom_site_fract_y 
_atom_site_fract_z 
_atom_site_charge 
C1          C  0.73237761  0.32401355  0.27887416     0.80500
N2          N  0.69442190  0.30667724  0.26027460    -0.77800
C3          C  0.67266720  0.27165835  0.27983853     0.82900
N4          N  0.68935567  0.25439179  0.31884938    -0.77800
C5          C  0.72694622  0.27088230  0.33805229     0.83000
N6          N  0.74851773  0.30534014  0.31766919    -0.79500
C7          C  0.73817266  0.77989685  0.27160182     0.80500
N8          N  0.75635853  0.80204322  0.30693560    -0.77800
C9          C  0.73797112  0.84034053  0.32266233     0.82900
N10         N  0.70032830  0.85676046  0.30233685    -0.77800
C11         C  0.68135661  0.83573252  0.26638080     0.83000
N12         N  0.70069397  0.79729147  0.25150286    -0.79500
C13         C  0.22283276  0.84048844  0.25398594     0.80500
N14         N  0.20308038  0.80379498  0.23608150    -0.77800
C15         C  0.16482561  0.78642931  0.25365103     0.82900
N16         N  0.14649584  0.80635691  0.29046610    -0.77800
C17         C  0.16516763  0.84322399  0.30942362     0.83000
N18         N  0.20340591  0.85981187  0.29068295    -0.79500
C19         C  0.22190536  0.83739643  0.82787136     0.80500
N20         N  0.20554938  0.85488768  0.78866718    -0.77800
C21         C  0.16944319  0.83722044  0.76750957     0.82900
N22         N  0.14876135  0.80147291  0.78654970    -0.77800
C23         C  0.16383162  0.78294241  0.82586873     0.83000
N24         N  0.20054739  0.80136125  0.84631977    -0.79500
C25         C  0.72890920  0.27718270  0.77993644     0.80500
N26         N  0.69047300  0.26049060  0.79821732    -0.77800
C27         C  0.66934929  0.28115672  0.83300825     0.82900
N28         N  0.68768131  0.31880582  0.84983471    -0.77800
C29         C  0.72593113  0.33640262  0.83271993     0.83000
N30         N  0.74637325  0.31521272  0.79778217    -0.79500
C31         C  0.73561504  0.83410911  0.78013011     0.80500
N32         N  0.74940075  0.79615011  0.80160968    -0.77800
C33         C  0.72659697  0.77941344  0.83762688     0.82900
N34         N  0.68998603  0.80172446  0.85259177    -0.77800
C35         C  0.67576067  0.84004416  0.83218896     0.83000
N36         N  0.69868793  0.85578436  0.79589717    -0.79500
C37         C  0.21948976  0.28144251  0.83492756     0.80500
N38         N  0.20104718  0.31981503  0.85132997    -0.77800
C39         C  0.16487041  0.33952149  0.83089356     0.82900
N40         N  0.14718719  0.31983474  0.79366956    -0.77800
C41         C  0.16455112  0.28173661  0.77630809     0.83000
N42         N  0.20067899  0.26288080  0.79744447    -0.79500
C43         C  0.22591934  0.27030056  0.26806235     0.80500
N44         N  0.20552705  0.25297865  0.30517301    -0.77800
C45         C  0.16829909  0.27230115  0.32281391     0.82900
N46         N  0.15189195  0.30988678  0.30287516    -0.77800
C47         C  0.17140641  0.32827070  0.26582983     0.83000
N48         N  0.20863438  0.30817376  0.24883053    -0.79500
O49         O  0.01395115  0.12563792  0.55225665    -0.55200
O50         O  0.84476491  0.19374271  0.50244400    -0.63100
C51         C  0.80702481  0.17865848  0.49111136     0.97700
O52         O  0.15346425  0.02590724  0.54045425    -0.68300
O53         O  0.07571934  0.05830741  0.59467550    -0.66200
C54         C  0.72688013  0.04088260  0.57257462     0.89800
O55         O  0.90101853  0.25249636  0.55033844    -0.68400
C56         C  0.81287401  0.18115123  0.62846230     0.97400
C57         C  0.93436686  0.27767989  0.54668872     0.90300
Ti58       Ti  0.89227545  0.18476705  0.55469517     1.51200
Ti59       Ti  0.00688580  0.92219464  0.54309164     1.51300
O60         O  0.94693123  0.18045001  0.60208314    -0.62200
O61         O  0.82048841  0.05094318  0.50958056    -0.66200
C62         C  0.09020095  0.92577148  0.60986451     0.97800
O63         O  0.88748537  0.98608254  0.55069690    -0.55300
C64         C  0.81763560  0.91776084  0.48476877     0.97500
Ti65       Ti  0.81083665  0.09912707  0.56204013     1.51000
Ti66       Ti  0.99646135  0.19495777  0.55098335     1.53000
Ti67       Ti  0.08399638  0.11325005  0.54863675     1.49300
O68         O  0.80799742  0.94849103  0.60807149    -0.61900
O69         O  0.74974493  0.00688618  0.56331513    -0.68300
O70         O  0.97472673  0.26361615  0.54840407    -0.68400
O71         O  0.88122362  0.11481314  0.55705664    -0.55200
O72         O  0.07192125  0.06363226  0.49745359    -0.66200
O73         O  0.05184360  0.91055505  0.48785547    -0.63000
O74         O  0.94378943  0.17727101  0.50477129    -0.62300
O75         O  0.86129393  0.89736420  0.60570333    -0.63600
O76         O  0.99640187  0.85345923  0.54303395    -0.68400
O77         O  0.84519900  0.19972423  0.60781262    -0.63100
O78         O  0.01682892  0.99277747  0.54430822    -0.55200
C79         C  0.96043264  0.83172349  0.54541919     0.90300
O80         O  0.82989262  0.04608042  0.60686935    -0.66200
O81         O  0.04568245  0.21239254  0.60184064    -0.63600
O82         O  0.05596108  0.90741365  0.59325551    -0.63000
C83         C  0.08098455  0.19449671  0.61880170     0.97700
C84         C  0.82677228  0.91409823  0.62408784     0.97600
C85         C  0.17340200  0.06283702  0.54007960     0.89700
O86         O  0.10565199  0.96191634  0.59411955    -0.62400
O87         O  0.78793766  0.14722614  0.51250035    -0.62400
C88         C  0.08602671  0.92915092  0.47073824     0.97300
Ti89       Ti  0.08634886  0.00923521  0.54292629     1.51000
O90         O  0.85434489  0.90116618  0.49889765    -0.63600
O91         O  0.79851161  0.14320323  0.61696735    -0.62400
O92         O  0.09622621  0.16228100  0.49818228    -0.62000
O93         O  0.92194301  0.84933539  0.54698147    -0.68500
O94         O  0.04115999  0.21220097  0.49617149    -0.63600
O95         O  0.15358249  0.10002776  0.54422153    -0.68100
O96         O  0.79992878  0.95168827  0.50291667    -0.61900
Ti97       Ti  0.90355881  0.91666717  0.54932326     1.53200
O98         O  0.09809483  0.15884584  0.60293607    -0.61900
O99         O  0.95158681  0.93156924  0.49746615    -0.62300
O100        O  0.10194721  0.96486179  0.48730365    -0.62400
C101        C  0.07774503  0.19647040  0.48100912     0.97700
O102        O  0.74253181  0.08018108  0.57095406    -0.68400
Ti103      Ti  0.81740716  0.99659405  0.55633838     1.49500
O104        O  0.95765194  0.92922060  0.59503750    -0.62300
O105        O  0.45274523  0.99043181  0.10863375    -0.55200
O106        O  0.50821580  0.14884116  0.20511685    -0.63100
C107        C  0.52108920  0.18593867  0.18880351     0.97700
O108        O  0.45778746  0.85309728  0.00287136    -0.68300
O109        O  0.40465492  0.93036473  0.04298615    -0.66200
C110        C  0.43164866  0.27737975  0.06241534     0.89800
O111        O  0.46403521  0.08002261  0.25965072    -0.68400
C112        C  0.38539293  0.18202882  0.19366082     0.97400
C113        C  0.46535054  0.03949208  0.27296677     0.90300
Ti114      Ti  0.45630461  0.10213352  0.19052731     1.51200
Ti115      Ti  0.44652863  0.01025660  0.90776639     1.51300
O116        O  0.40671326  0.05251802  0.17597110    -0.62200
O117        O  0.49614797  0.18388732  0.05320117    -0.66200
C118        C  0.37986686  0.92594292  0.90860769     0.97800
O119        O  0.45014179  0.12494138  0.98669955    -0.55300
C120        C  0.51356441  0.19794397  0.92051019     0.97500
Ti121      Ti  0.44960964  0.18771690  0.10783171     1.51000
Ti122      Ti  0.45495383  0.00009663  0.17963990     1.53000
Ti123      Ti  0.45525450  0.92055815  0.09379323     1.49300
O124        O  0.38937081  0.20784109  0.95810029    -0.61900
O125        O  0.43405807  0.26216022  0.02261152    -0.68300
O126        O  0.45697495  0.00775949  0.24726971    -0.68400
O127        O  0.45336332  0.11849566  0.12008770    -0.55200
O128        O  0.50154016  0.93466885  0.04045668    -0.66200
O129        O  0.49888916  0.96412051  0.88721367    -0.63000
O130        O  0.50381196  0.05186636  0.17171877    -0.62300
O131        O  0.39536228  0.16092386  0.90156609    -0.63600
O132        O  0.44152999  0.03179522  0.83959048    -0.68400
O133        O  0.40426248  0.14824438  0.21209342    -0.63100
O134        O  0.44886652  0.99244927  0.97749932    -0.55200
C135        C  0.44136426  0.07126324  0.82353315     0.90300
O136        O  0.39972333  0.17589595  0.05654748    -0.66200
O137        O  0.40247396  0.95445643  0.19351110    -0.63600
O138        O  0.39359588  0.96318371  0.89279760    -0.63000
C139        C  0.38677282  0.91931639  0.17666135     0.97700
C140        C  0.37593442  0.19317065  0.92042570     0.97600
C141        C  0.46151617  0.83354501  0.04079423     0.89700
O142        O  0.39886288  0.90716648  0.94236427    -0.62400
O143        O  0.50245063  0.20372691  0.15445271    -0.62400
C144        C  0.51720666  0.92959387  0.90474003     0.97300
Ti145      Ti  0.45199285  0.92248752  0.98927469     1.51000
O146        O  0.49974701  0.16158226  0.90393640    -0.63600
O147        O  0.39864322  0.19765479  0.15633813    -0.62400
O148        O  0.51045482  0.90420809  0.13855666    -0.62000
O149        O  0.44625242  0.10558800  0.84690266    -0.68500
O150        O  0.50770046  0.95342188  0.19297959    -0.63600
O151        O  0.45868078  0.85376403  0.07778572    -0.68100
O152        O  0.49456299  0.21602899  0.95437231    -0.61900
Ti153      Ti  0.44781064  0.11425815  0.91581743     1.53200
O154        O  0.40399353  0.90200554  0.14171891    -0.61900
O155        O  0.49582977  0.06101269  0.92170252    -0.62300
O156        O  0.50302877  0.91210443  0.94093162    -0.62400
C157        C  0.52585835  0.92000431  0.17493657     0.97700
O158        O  0.44357940  0.25522115  0.09664904    -0.68400
Ti159      Ti  0.44442862  0.19450569  0.00311926     1.49500
O160        O  0.39916298  0.06175447  0.92452498    -0.62300
O161        O  0.87648222  0.55591310  0.99370630    -0.55200
O162        O  0.80694541  0.49456396  0.16251735    -0.63100
C163        C  0.82354395  0.47969404  0.19898300     0.97700
O164        O  0.96411013  0.56783095  0.84042683    -0.68300
O165        O  0.93634936  0.60888569  0.92964229    -0.66200
C166        C  0.96397892  0.55022198  0.28190782     0.89800
O167        O  0.74875490  0.54410885  0.10718395    -0.68400
C168        C  0.81931440  0.61631516  0.19879251     0.97400
C169        C  0.72451236  0.53871778  0.07298623     0.90300
Ti170      Ti  0.81669740  0.54839140  0.11637120     1.51200
Ti171      Ti  0.07406510  0.56057564  0.99141624     1.51300
O172        O  0.81996145  0.59863736  0.06472150    -0.62200
O173        O  0.95490546  0.50266738  0.18216540    -0.66200
C174        C  0.06832430  0.63228070  0.91119435     0.97800
O175        O  0.01343907  0.55266574  0.11648932    -0.55300
C176        C  0.09041441  0.48636409  0.17816597     0.97500
Ti177      Ti  0.90342256  0.55046953  0.19752200     1.51000
Ti178      Ti  0.80683538  0.55140105  0.01222198     1.53000
Ti179      Ti  0.88460794  0.56005589  0.92251852     1.49300
O180        O  0.05230364  0.60461097  0.20090986    -0.61900
O181        O  0.99887332  0.54972443  0.25809112    -0.68300
O182        O  0.73926451  0.54283304  0.03311818    -0.68400
O183        O  0.88672445  0.55138023  0.12710760    -0.55200
O184        O  0.93809149  0.51235592  0.92340258    -0.66200
O185        O  0.08787481  0.51152257  0.94147964    -0.63000
O186        O  0.82659680  0.50240542  0.06199454    -0.62300
O187        O  0.09887460  0.60838147  0.14335320    -0.63600
O188        O  0.14276678  0.56456165  0.00130670    -0.68400
O189        O  0.80138232  0.59837857  0.16475996    -0.63100
O190        O  0.00442855  0.55779154  0.97958231    -0.55200
C191        C  0.16510297  0.56768505  0.03714962     0.90300
O192        O  0.95309793  0.59949826  0.18252297    -0.66200
O193        O  0.78376112  0.60520045  0.96762714    -0.63600
O194        O  0.08508820  0.61496265  0.94639125    -0.63000
C195        C  0.80130424  0.62521483  0.93397305     0.97700
C196        C  0.08483655  0.62271571  0.18088738     0.97600
C197        C  0.92335163  0.56969870  0.82732299     0.89700
O198        O  0.03302820  0.61656818  0.89307077    -0.62400
O199        O  0.85797081  0.49740968  0.21665644    -0.62400
C200        C  0.07092900  0.49602066  0.90549185     0.97300
Ti201      Ti  0.98735741  0.56259217  0.90928711     1.51000
O202        O  0.10471842  0.50349884  0.14151581    -0.63600
O203        O  0.85637185  0.60226865  0.21495441    -0.62400
O204        O  0.83802973  0.50820759  0.90788875    -0.62000
O205        O  0.14859570  0.56298608  0.07605101    -0.68500
O206        O  0.79123583  0.50029384  0.96491775    -0.63600
O207        O  0.89081760  0.56603511  0.85384166    -0.68100
O208        O  0.05580292  0.50124158  0.19768293    -0.61900
Ti209      Ti  0.08206858  0.55669704  0.09654669     1.53200
O210        O  0.83692154  0.61153890  0.91598198    -0.61900
O211        O  0.06897833  0.50988609  0.04319150    -0.62300
O212        O  0.03490589  0.51193556  0.88838865    -0.62400
C213        C  0.80574030  0.48836104  0.92682438     0.97700
O214        O  0.92449133  0.55092757  0.26576085    -0.68400
Ti215      Ti  0.00645322  0.55179514  0.18819301     1.49500
O216        O  0.06344192  0.60584911  0.04641979    -0.62300
N217        N  0.90985469  0.50258429  0.51974754    -0.36400
N218        N  0.84184632  0.51520368  0.59241032    -0.56900
N219        N  0.89740170  0.59542231  0.61079988    -0.36400
N220        N  0.95551081  0.58105373  0.53754140    -0.56900
C221        C  0.87516198  0.47526118  0.51396052     0.27200
C222        C  0.92500729  0.51327293  0.47857378     0.27200
C223        C  0.85707648  0.59839707  0.63025356     0.27200
C224        C  0.90925569  0.63686143  0.59877769     0.27200
C225        C  0.84227364  0.47080920  0.58778332     0.35800
C226        C  0.83258898  0.52258933  0.63588891     0.35800
C227        C  0.98035770  0.56767176  0.50294818     0.35800
C228        C  0.97492712  0.61724284  0.55409130     0.35800
C229        C  0.86804302  0.46747589  0.46880378    -0.21700
C230        C  0.89926700  0.49228479  0.44611667    -0.21700
C231        C  0.84299127  0.64211201  0.63152130    -0.21700
C232        C  0.87602559  0.66668971  0.61117020    -0.21700
C233        C  0.83054125  0.44975196  0.62750988    -0.22700
C234        C  0.82446895  0.48293222  0.65842662    -0.22700
C235        C  0.01723786  0.59479186  0.49786523    -0.22700
C236        C  0.01392575  0.62643607  0.53077781    -0.22700
C237        C  0.85814218  0.45013268  0.54916058    -0.18100
C238        C  0.96263297  0.53991287  0.47022447    -0.18100
C239        C  0.95016117  0.64794585  0.57856544    -0.18100
C240        C  0.83990012  0.56384444  0.65608983    -0.18100
H241        H  0.84392500  0.44528411  0.45394742     0.14800
H242        H  0.90340878  0.49346446  0.41002082     0.14800
H243        H  0.81307163  0.65502618  0.64695014     0.14800
H244        H  0.87610392  0.70246143  0.60712125     0.14800
H245        H  0.82936584  0.41435024  0.63407210     0.13100
H246        H  0.81804308  0.47839925  0.69393201     0.13100
H247        H  0.04127448  0.59435970  0.47082510     0.13100
H248        H  0.03481461  0.65551473  0.53392172     0.13100
H249        H  0.92391156  0.51031886  0.55077785     0.26400
H250        H  0.91691658  0.56667659  0.60901513     0.26400
N251        N  0.50579715  0.96324487  0.52388830    -0.36400
N252        N  0.48462209  0.01342536  0.60402317    -0.56900
N253        N  0.40465812  0.04951489  0.56668461    -0.36400
N254        N  0.42311652  0.00727720  0.48597925    -0.56900
C255        C  0.54625391  0.96851935  0.54302870     0.27200
C256        C  0.51232981  0.96424137  0.47912700     0.27200
C257        C  0.40913485  0.07495805  0.60302976     0.27200
C258        C  0.37663757  0.07063778  0.53840068     0.27200
C259        C  0.51863179  0.98733353  0.61745406     0.35800
C260        C  0.46460922  0.02743874  0.64152605     0.35800
C261        C  0.43388230  0.97320392  0.45959209     0.35800
C262        C  0.37943976  0.01515633  0.47974258     0.35800
C263        C  0.57908085  0.96906931  0.51017270    -0.21700
C264        C  0.55744449  0.96668945  0.46956861    -0.21700
C265        C  0.38349616  0.11313889  0.59845962    -0.21700
C266        C  0.36257691  0.11031186  0.55723580    -0.21700
C267        C  0.52121220  0.98521999  0.66375685    -0.22700
C268        C  0.48611787  0.00994124  0.67925623    -0.22700
C269        C  0.39716491  0.96061983  0.43422722    -0.22700
C270        C  0.36194693  0.98670604  0.44799325    -0.22700
C271        C  0.55351793  0.97753185  0.58881500    -0.18100
C272        C  0.47804001  0.96693646  0.44721488    -0.18100
C273        C  0.35692371  0.04933542  0.50177711    -0.18100
C274        C  0.43169499  0.06088437  0.64157545    -0.18100
H275        H  0.61465192  0.97330406  0.51482217     0.14800
H276        H  0.57290368  0.96859878  0.43680939     0.14800
H277        H  0.37882385  0.13905674  0.62301200     0.14800
H278        H  0.33807798  0.13341013  0.54385763     0.14800
H279        H  0.54702424  0.96960416  0.68398561     0.13100
H280        H  0.47911337  0.01637190  0.71421191     0.13100
H281        H  0.39665549  0.93707113  0.40696328     0.13100
H282        H  0.32825629  0.98638954  0.43473902     0.13100
H283        H  0.47505222  0.96200618  0.54016609     0.26400
H284        H  0.41585247  0.01687308  0.56397245     0.26400
N285        N  0.47039349  0.49379456  0.12978846    -0.36400
N286        N  0.50571224  0.57901636  0.09480144    -0.56900
N287        N  0.42156159  0.60458388  0.06206133    -0.36400
N288        N  0.38567380  0.52199943  0.09227148    -0.56900
C289        C  0.51457640  0.48605129  0.12587782     0.27200
C290        C  0.45002686  0.45458759  0.12271079     0.27200
C291        C  0.44812225  0.63359182  0.04064936     0.27200
C292        C  0.38284025  0.60398278  0.03945912     0.27200
C293        C  0.53712029  0.56409905  0.12325219     0.35800
C294        C  0.51340879  0.62255687  0.08865161     0.35800
C295        C  0.37391840  0.48388658  0.11263511     0.35800
C296        C  0.34751307  0.54351558  0.08255315     0.35800
C297        C  0.52274180  0.44135703  0.11916462    -0.21700
C298        C  0.48188999  0.42129546  0.11745393    -0.21700
C299        C  0.42580625  0.65190563  0.00390309    -0.21700
C300        C  0.38419659  0.63297489  0.00317336    -0.21700
C301        C  0.56621920  0.59816801  0.13424938    -0.22700
C302        C  0.55062831  0.63575425  0.11264408    -0.22700
C303        C  0.32806469  0.48054450  0.11579500    -0.22700
C304        C  0.31111222  0.51891387  0.09728664    -0.22700
C305        C  0.54731618  0.51893803  0.12596418    -0.18100
C306        C  0.40356312  0.44866075  0.11794598    -0.18100
C307        C  0.34543385  0.58109247  0.05420314    -0.18100
C308        C  0.48830305  0.64878819  0.05889654    -0.18100
H309        H  0.55469067  0.42513388  0.11458135     0.14800
H310        H  0.47652280  0.38638661  0.11121830     0.14800
H311        H  0.43744750  0.67727499  0.98092514     0.14800
H312        H  0.35759420  0.64065826  0.97961614     0.14800
H313        H  0.59687758  0.59537992  0.15345037     0.13100
H314        H  0.56595828  0.66825549  0.11275238     0.13100
H315        H  0.30904545  0.45243718  0.12796361     0.13100
H316        H  0.27603773  0.52619609  0.09251834     0.13100
H317        H  0.45528163  0.52429305  0.13534233     0.26400
H318        H  0.42747275  0.58975521  0.09295936     0.26400
C319        C  0.28443500  0.57121787  0.00170097    -0.12000
C320        C  0.30189043  0.59490276  0.03787182     0.05000
C321        C  0.27387474  0.61741969  0.06778918    -0.07300
C322        C  0.22846108  0.60910965  0.06584471    -0.08100
C323        C  0.21147935  0.57980793  0.03378562    -0.02600
C324        C  0.23892424  0.56331669  0.99946770     0.04200
N325        N  0.22222793  0.53352773  0.96631918     0.66700
H326        H  0.30658313  0.55380869  0.97905594     0.15600
H327        H  0.20665840  0.62393964  0.09060839     0.15300
N328        N  0.29189030  0.64342321  0.10372452     0.74400
O329        O  0.21733774  0.54670264  0.92624005    -0.39000
O330        O  0.21895029  0.49269356  0.97556585    -0.39000
O331        O  0.32240869  0.67121095  0.09601886    -0.39700
O332        O  0.27676717  0.63938173  0.14306928    -0.39800
C333        C  0.66956350  0.50869522  0.12602238    -0.12000
C334        C  0.67854775  0.52518926  0.08231360     0.05000
C335        C  0.64383626  0.52764999  0.05030761    -0.07300
C336        C  0.60060340  0.51762390  0.06404965    -0.08100
C337        C  0.59166792  0.50780444  0.10937602    -0.02600
C338        C  0.62630819  0.50038421  0.13976302     0.04200
N339        N  0.61748183  0.48928529  0.18568522     0.66700
H340        H  0.69596569  0.50409334  0.15065104     0.15600
H341        H  0.57313506  0.52326651  0.04082398     0.15300
N342        N  0.65070893  0.54437729  0.00563459     0.74400
O343        O  0.60142677  0.45182628  0.19574525    -0.39000
O344        O  0.62305694  0.51791946  0.21590070    -0.39000
O345        O  0.63427330  0.52397302  0.97262406    -0.39700
O346        O  0.66485814  0.58346102  0.99990484    -0.39800
C347        C  0.95073745  0.58524528  0.35436233    -0.12000
C348        C  0.96993970  0.55061396  0.33016047     0.05000
C349        C  0.99523662  0.51744174  0.35226081    -0.07300
C350        C  0.99648325  0.51643824  0.39902229    -0.08100
C351        C  0.97365178  0.54883873  0.42328569    -0.02600
C352        C  0.95292467  0.58494655  0.40097502     0.04200
N353        N  0.93158985  0.61986637  0.42530944     0.66700
H354        H  0.93293339  0.61180714  0.33706721     0.15600
H355        H  0.01247060  0.48881326  0.41637009     0.15300
N356        N  0.01696943  0.48297114  0.32779175     0.74400
O357        O  0.94673696  0.65887220  0.42291661    -0.39000
O358        O  0.89507559  0.61286556  0.44506775    -0.39000
O359        O  0.05901307  0.48206008  0.32569271    -0.39700
O360        O  0.99469714  0.45049027  0.31348409    -0.39800
C361        C  0.87095237  0.60083285  0.77228921    -0.12000
C362        C  0.90986672  0.57537068  0.78026125     0.05000
C363        C  0.92465133  0.54585633  0.74735820    -0.07300
C364        C  0.89936014  0.54039605  0.70845346    -0.08100
C365        C  0.85906141  0.56374294  0.70173827    -0.02600
C366        C  0.84471297  0.59437371  0.73403394     0.04200
N367        N  0.80297228  0.61760775  0.72927047     0.66700
H368        H  0.85873400  0.62298331  0.79807903     0.15600
H369        H  0.91195146  0.51860294  0.68256369     0.15300
N370        N  0.96418509  0.51996976  0.75361001     0.74400
O371        O  0.76884128  0.59751340  0.71513238    -0.39000
O372        O  0.79911562  0.65708524  0.74278898    -0.39000
O373        O  0.96303217  0.47861782  0.74700853    -0.39700
O374        O  0.00133772  0.53932052  0.75675533    -0.39800
C375        C  0.39604103  0.32773604  0.11616112    -0.12000
C376        C  0.41189441  0.32095623  0.07204819     0.05000
C377        C  0.40832170  0.35560132  0.04026300    -0.07300
C378        C  0.39593490  0.39781545  0.05497224    -0.08100
C379        C  0.38908324  0.40553355  0.10100368    -0.02600
C380        C  0.38514120  0.36991892  0.13093156     0.04200
N381        N  0.37696823  0.37708852  0.17759749     0.66700
H382        H  0.39521978  0.30080475  0.14055023     0.15600
H383        H  0.39848565  0.42569895  0.03183435     0.15300
N384        N  0.42195841  0.34994720  0.99469713     0.74400
O385        O  0.33739878  0.37814471  0.19188024    -0.39000
O386        O  0.40904379  0.37638346  0.20521145    -0.39000
O387        O  0.39367803  0.35398313  0.96338272    -0.39700
O388        O  0.46296925  0.34793620  0.98538948    -0.39800
C389        C  0.46104194  0.76474146  0.08488158    -0.12000
C390        C  0.47115070  0.78597156  0.04403319     0.05000
C391        C  0.49489185  0.76271729  0.01072988    -0.07300
C392        C  0.50656473  0.71828077  0.01837283    -0.08100
C393        C  0.49372824  0.69690733  0.05822249    -0.02600
C394        C  0.47249512  0.72082678  0.09235097     0.04200
N395        N  0.45839951  0.69957775  0.13304014     0.66700
H396        H  0.44330033  0.78205714  0.11120181     0.15600
H397        H  0.52207623  0.69939854  0.99175792     0.15300
N398        N  0.50645446  0.78323360  0.96892938     0.74400
O399        O  0.48392414  0.69929799  0.16686383    -0.39000
O400        O  0.41818761  0.68811456  0.13749016    -0.39000
O401        O  0.54662543  0.79276640  0.96103335    -0.39700
O402        O  0.47820712  0.78473137  0.93737725    -0.39800
C403        C  0.48343847  0.03344296  0.39862029    -0.12000
C404        C  0.48826523  0.98700904  0.40369722     0.05000
C405        C  0.49333132  0.96014265  0.36641189    -0.07300
C406        C  0.48877870  0.97909755  0.32421226    -0.08100
C407        C  0.47829882  0.02487950  0.31848392    -0.02600
C408        C  0.47832866  0.05263498  0.35603470     0.04200
N409        N  0.47010272  0.09925438  0.35183094     0.66700
H410        H  0.48024013  0.05423655  0.42800331     0.15600
H411        H  0.49138301  0.95691912  0.29582912     0.15300
N412        N  0.49903021  0.91312595  0.37109465     0.74400
O413        O  0.43350436  0.11536336  0.36491388    -0.39000
O414        O  0.50118549  0.12486399  0.33987350    -0.39000
O415        O  0.46577233  0.88770632  0.36820222    -0.39700
O416        O  0.53717521  0.89705869  0.37934540    -0.39800
C417        C  0.45309529  0.10741483  0.70372876    -0.12000
C418        C  0.42066319  0.08024092  0.68451191     0.05000
C419        C  0.38915166  0.05830182  0.71139234    -0.07300
C420        C  0.39525112  0.05791448  0.75758782    -0.08100
C421        C  0.43253653  0.07850512  0.77634641    -0.02600
C422        C  0.45989622  0.10617325  0.74989160     0.04200
N423        N  0.49827602  0.12769306  0.76822594     0.66700
H424        H  0.47726491  0.12408839  0.68252299     0.15600
H425        H  0.37266966  0.03913959  0.77858401     0.15300
N426        N  0.35567114  0.03052100  0.69202268     0.74400
O427        O  0.53663182  0.11629710  0.75512843    -0.39000
O428        O  0.49360173  0.16363623  0.78925387    -0.39000
O429        O  0.36609525  0.99245505  0.67788424    -0.39700
O430        O  0.31502891  0.04078429  0.69603712    -0.39800
C431        C  0.60205606  0.04295377  0.58554554    -0.12000
C432        C  0.59592902  0.99874005  0.60007940     0.05000
C433        C  0.63214785  0.97339198  0.61494854    -0.07300
C434        C  0.67473364  0.99018220  0.60923860    -0.08100
C435        C  0.68153675  0.03155052  0.58768086    -0.02600
C436        C  0.64492585  0.05944221  0.57831914     0.04200
N437        N  0.65023943  0.10168368  0.55657738     0.66700
H438        H  0.57355705  0.06252066  0.57442100     0.15600
H439        H  0.70275201  0.96908532  0.61853608     0.15300
N440        N  0.62640260  0.92909198  0.63148558     0.74400
O441        O  0.66476905  0.10355089  0.51686187    -0.39000
O442        O  0.63329439  0.13597642  0.57380307    -0.39000
O443        O  0.63223607  0.89670554  0.60548144    -0.39700
O444        O  0.62379369  0.92222020  0.67326661    -0.39800
C445        C  0.28976321  0.01959956  0.53407551    -0.12000
C446        C  0.30837893  0.04897400  0.50281256     0.05000
C447        C  0.28289009  0.08389106  0.48439493    -0.07300
C448        C  0.23915071  0.09009151  0.49919003    -0.08100
C449        C  0.22096253  0.06116680  0.53143870    -0.02600
C450        C  0.24656077  0.02565139  0.54888885     0.04200
N451        N  0.22995385  0.99700656  0.58352554     0.66700
H452        H  0.31011540  0.99369267  0.54947720     0.15600
H453        H  0.21888995  0.11631366  0.48431860     0.15300
N454        N  0.30117180  0.11292556  0.45101226     0.74400
O455        O  0.21432676  0.95952493  0.57332912    -0.39000
O456        O  0.24019449  0.00466740  0.62387396    -0.39000
O457        O  0.31155971  0.09778849  0.41302798    -0.39700
O458        O  0.30232898  0.15427519  0.45755095    -0.39800
C459        C  0.98532464  0.76668052  0.58751750    -0.12000
C460        C  0.96347389  0.78428674  0.54963206     0.05000
C461        C  0.94043140  0.75683448  0.51976992    -0.07300
C462        C  0.93792942  0.71180635  0.52919351    -0.08100
C463        C  0.95806041  0.69444294  0.56813712    -0.02600
C464        C  0.98268642  0.72150614  0.59704455     0.04200
N465        N  0.00361414  0.70373642  0.63657587     0.66700
H466        H  0.00285742  0.78830496  0.61054390     0.15600
H467        H  0.91912470  0.69041479  0.50699697     0.15300
N468        N  0.91929456  0.77443379  0.48026257     0.74400
O469        O  0.03731186  0.67872813  0.63316110    -0.39000
O470        O  0.99107613  0.71627006  0.67487353    -0.39000
O471        O  0.94099770  0.77726409  0.44411971    -0.39700
O472        O  0.87774193  0.78142326  0.47990685    -0.39800
C473        C  0.93951181  0.35595276  0.57044235    -0.12000
C474        C  0.92248084  0.32448181  0.54087628     0.05000
C475        C  0.88424734  0.33486973  0.51466930    -0.07300
C476        C  0.86107533  0.37411070  0.52173089    -0.08100
C477        C  0.87724977  0.40526656  0.55182535    -0.02600
C478        C  0.91770390  0.39680026  0.57541602     0.04200
N479        N  0.93756433  0.42961582  0.60355105     0.66700
H480        H  0.96850090  0.34817958  0.59098886     0.15600
H481        H  0.83153448  0.38137300  0.50179640     0.15300
N482        N  0.86890413  0.30578410  0.48022325     0.74400
O483        O  0.92752458  0.43063221  0.64464864    -0.39000
O484        O  0.97247760  0.44905325  0.59049338    -0.39000
O485        O  0.82886908  0.29290585  0.48027798    -0.39700
O486        O  0.89162338  0.30222750  0.44485050    -0.39800
C487        C  0.12969865  0.19094715  0.41516740    -0.12000
C488        C  0.10028139  0.21717349  0.44078072     0.05000
C489        C  0.09366163  0.26182685  0.42713452    -0.07300
C490        C  0.11598474  0.27894334  0.38906527    -0.08100
C491        C  0.14507763  0.25251751  0.36319069    -0.02600
C492        C  0.15135484  0.20769786  0.37675005     0.04200
N493        N  0.17789267  0.17785687  0.35079682     0.66700
H494        H  0.13510195  0.15638172  0.42420597     0.15600
H495        H  0.11082798  0.31349976  0.38013211     0.15300
N496        N  0.06576447  0.29084445  0.45247758     0.74400
O497        O  0.21246969  0.16037737  0.36778933    -0.39000
O498        O  0.16344107  0.16421573  0.31349983    -0.39000
O499        O  0.08270407  0.31482239  0.48260215    -0.39700
O500        O  0.02576297  0.29716388  0.44055800    -0.39800
C501        C  0.09051583  0.42342288  0.23391112    -0.12000
C502        C  0.11326723  0.44654145  0.19971864     0.05000
C503        C  0.15611109  0.43053712  0.18768174    -0.07300
C504        C  0.17438230  0.39228815  0.20917497    -0.08100
C505        C  0.15129362  0.36925619  0.24352505    -0.02600
C506        C  0.10873876  0.38600261  0.25575459     0.04200
N507        N  0.08277213  0.36540323  0.29020193     0.66700
H508        H  0.05753859  0.43418773  0.24397270     0.15600
H509        H  0.20718586  0.38093632  0.19913591     0.15300
N510        N  0.18215310  0.45329303  0.15469844     0.74400
O511        O  0.08311785  0.38137774  0.32926352    -0.39000
O512        O  0.05333955  0.33742926  0.27971561    -0.39000
O513        O  0.20858834  0.48355408  0.16665949    -0.39700
O514        O  0.18351063  0.43903015  0.11498388    -0.39800
C515        C  0.29325283  0.21944317  0.27618031    -0.12000
C516        C  0.26649743  0.24745117  0.24872060     0.05000
C517        C  0.27957245  0.25336181  0.20338936    -0.07300
C518        C  0.31851352  0.23262619  0.18726602    -0.08100
C519        C  0.34534289  0.20457795  0.21454083    -0.02600
C520        C  0.33227993  0.19851117  0.25980740     0.04200
N521        N  0.35928806  0.17301477  0.29026563     0.66700
H522        H  0.28453321  0.21459167  0.31116096     0.15600
H523        H  0.32689437  0.23751754  0.15220127     0.15300
N524        N  0.25245574  0.27817437  0.17227835     0.74400
O525        O  0.39643276  0.18806421  0.30309244    -0.39000
O526        O  0.34350770  0.13883399  0.30908246    -0.39000
O527        O  0.26969373  0.30840661  0.14846936    -0.39700
O528        O  0.21340117  0.26520375  0.16343407    -0.39800
C529        C  0.15569412  0.21661612  0.72305921    -0.12000
C530        C  0.14354817  0.26025817  0.73515888     0.05000
C531        C  0.11035653  0.28167160  0.70824348    -0.07300
C532        C  0.09089722  0.25986100  0.67115796    -0.08100
C533        C  0.10299112  0.21628859  0.65912361    -0.02600
C534        C  0.13562764  0.19453793  0.68635136     0.04200
N535        N  0.14723624  0.14907127  0.67888799     0.66700
H536        H  0.18013519  0.19864168  0.74312615     0.15600
H537        H  0.06608479  0.27764918  0.65137423     0.15300
N538        N  0.09586667  0.32591855  0.71755310     0.74400
O539        O  0.18605608  0.13906847  0.66606308    -0.39000
O540        O  0.12093005  0.11871572  0.69121139    -0.39000
O541        O  0.11853498  0.35841037  0.70355033    -0.39700
O542        O  0.05679098  0.33246858  0.73178033    -0.39800
C543        C  0.10304286  0.39713592  0.82919961    -0.12000
C544        C  0.14283155  0.38125306  0.84928613     0.05000
C545        C  0.15924496  0.40552828  0.88652102    -0.07300
C546        C  0.13482925  0.44158974  0.90390917    -0.08100
C547        C  0.09480390  0.45697727  0.88427478    -0.02600
C548        C  0.07963223  0.43443024  0.84562158     0.04200
N549        N  0.04169771  0.44975059  0.82095119     0.66700
H550        H  0.08957120  0.38062020  0.80004309     0.15600
H551        H  0.14855170  0.45874706  0.93259055     0.15300
N552        N  0.20237077  0.39715489  0.90515225     0.74400
O553        O  0.04720835  0.46288034  0.78102831    -0.39000
O554        O  0.00310579  0.43932083  0.83405611    -0.39000
O555        O  0.23598557  0.40643501  0.88152983    -0.39700
O556        O  0.20671670  0.39517906  0.94734426    -0.39800
C557        C  0.31846694  0.25402079  0.91557698    -0.12000
C558        C  0.33609902  0.21483840  0.89764061     0.05000
C559        C  0.31518151  0.19785481  0.85849453    -0.07300
C560        C  0.27802126  0.22002349  0.83895802    -0.08100
C561        C  0.25984031  0.25927822  0.85735981    -0.02600
C562        C  0.28127040  0.27589812  0.89648210     0.04200
N563        N  0.26563482  0.31443421  0.91888397     0.66700
H564        H  0.33345908  0.26807875  0.94543264     0.15600
H565        H  0.26308489  0.20581166  0.80918478     0.15300
N566        N  0.33054887  0.15767577  0.83833227     0.74400
O567        O  0.29149904  0.34731566  0.92163110    -0.39000
O568        O  0.23579144  0.30950068  0.94825395    -0.39000
O569        O  0.35182283  0.15928366  0.80186012    -0.39700
O570        O  0.31742397  0.12066820  0.85337990    -0.39800
C571        C  0.75726567  0.89909334  0.73148849    -0.12000
C572        C  0.76149800  0.85345709  0.74108039     0.05000
C573        C  0.79040482  0.82819338  0.71335835    -0.07300
C574        C  0.81185550  0.84820694  0.67602367    -0.08100
C575        C  0.80673700  0.89378700  0.66604800    -0.02600
C576        C  0.78038579  0.91962731  0.69584441     0.04200
N577        N  0.77887657  0.96723885  0.69232606     0.66700
H578        H  0.73710059  0.91969378  0.75319191     0.15600
H579        H  0.83233857  0.82774928  0.65447459     0.15300
N580        N  0.79783661  0.78195946  0.72192249     0.74400
O581        O  0.74267851  0.98776041  0.69886287    -0.39000
O582        O  0.81483715  0.98892827  0.69114908    -0.39000
O583        O  0.78053334  0.75351577  0.69635595    -0.39700
O584        O  0.82803635  0.77008992  0.74922323    -0.39800
C585        C  0.79032993  0.73382140  0.86720446    -0.12000
C586        C  0.74404153  0.73944898  0.86290215     0.05000
C587        C  0.71595652  0.70835943  0.88502359    -0.07300
C588        C  0.73458170  0.67253594  0.91010709    -0.08100
C589        C  0.78106591  0.66659377  0.91350000    -0.02600
C590        C  0.80885472  0.69875873  0.89259864     0.04200
N591        N  0.85629514  0.69737616  0.89838359     0.66700
H592        H  0.81258331  0.75785531  0.85196479     0.15600
H593        H  0.71258927  0.64815535  0.92513975     0.15300
N594        N  0.66854450  0.71087230  0.87984355     0.74400
O595        O  0.88138659  0.69371042  0.86465539    -0.39000
O596        O  0.87314957  0.70517671  0.93643185    -0.39000
O597        O  0.65111003  0.70345606  0.84197921    -0.39700
O598        O  0.64397096  0.71362357  0.91404178    -0.39800
C599        C  0.60767476  0.88966851  0.82172322    -0.12000
C600        C  0.63626044  0.86503512  0.85047825     0.05000
C601        C  0.62599581  0.86378398  0.89679270    -0.07300
C602        C  0.58733032  0.88472601  0.91285964    -0.08100
C603        C  0.55807237  0.90861316  0.88429054    -0.02600
C604        C  0.56906372  0.91137871  0.83813454     0.04200
N605        N  0.54048583  0.93436193  0.80714152     0.66700
H606        H  0.61474950  0.89131307  0.78608043     0.15600
H607        H  0.58084725  0.88315458  0.94863037     0.15300
N608        N  0.65592865  0.84364119  0.92860162     0.74400
O609        O  0.54941542  0.97371855  0.79546275    -0.39000
O610        O  0.51044209  0.91334789  0.78655890    -0.39000
O611        O  0.69204931  0.86278328  0.93835579    -0.39700
O612        O  0.64355849  0.81051227  0.95154019    -0.39800
C613        C  0.73459422  0.21179050  0.72694082    -0.12000
C614        C  0.75157688  0.25302448  0.74133804     0.05000
C615        C  0.78928682  0.26977402  0.71785639    -0.07300
C616        C  0.80802395  0.24615624  0.68165286    -0.08100
C617        C  0.79109291  0.20503213  0.66745423    -0.02600
C618        C  0.75368134  0.18798076  0.69101406     0.04200
N619        N  0.73417049  0.14648520  0.67896961     0.66700
H620        H  0.70596725  0.19747873  0.74369750     0.15600
H621        H  0.83668924  0.26029245  0.66477607     0.15300
N622        N  0.80979783  0.31062561  0.73006284     0.74400
O623        O  0.70341918  0.14554424  0.64991144    -0.39000
O624        O  0.74283299  0.11208070  0.70195518    -0.39000
O625        O  0.83850552  0.31033124  0.76121106    -0.39700
O626        O  0.80937286  0.34246289  0.70219320    -0.39800
C627        C  0.73341296  0.38652296  0.89942442    -0.12000
C628        C  0.74602806  0.37667062  0.85496587     0.05000
C629        C  0.77797634  0.40482602  0.83427442    -0.07300
C630        C  0.79705578  0.44012935  0.85857851    -0.08100
C631        C  0.78458978  0.44965921  0.90306598    -0.02600
C632        C  0.75205290  0.42211745  0.92332987     0.04200
N633        N  0.73816133  0.42884075  0.96866873     0.66700
H634        H  0.70936615  0.36574128  0.91658961     0.15600
H635        H  0.82108092  0.46121995  0.84174219     0.15300
N636        N  0.78968113  0.40021755  0.78795056     0.74400
O637        O  0.69947918  0.44351796  0.97645619    -0.39000
O638        O  0.76145957  0.41334510  0.00059986    -0.39000
O639        O  0.75932491  0.40135131  0.75843124    -0.39700
O640        O  0.82973737  0.40548551  0.77604653    -0.39800
C641        C  0.56169862  0.26525089  0.90288340    -0.12000
C642        C  0.55398341  0.21932842  0.89898354     0.05000
C643        C  0.58507131  0.19418526  0.87345928    -0.07300
C644        C  0.62049506  0.21537631  0.85078633    -0.08100
C645        C  0.62826151  0.26120936  0.85455721    -0.02600
C646        C  0.59821772  0.28612660  0.88144247     0.04200
N647        N  0.60357792  0.33296676  0.88673186     0.66700
H648        H  0.53886652  0.28538284  0.92227693     0.15600
H649        H  0.64373501  0.19512649  0.83201739     0.15300
N650        N  0.58349553  0.14657965  0.87303492     0.74400
O651        O  0.59082860  0.35918778  0.85592258    -0.39000
O652        O  0.61501837  0.34830542  0.92437652    -0.39000
O653        O  0.58866809  0.12604247  0.83662692    -0.39700
O654        O  0.58542896  0.12518242  0.90965962    -0.39800
C655        C  0.15425300  0.90529485  0.72038310    -0.12000
C656        C  0.15142817  0.85879001  0.72534026     0.05000
C657        C  0.12967790  0.83461956  0.69092563    -0.07300
C658        C  0.11006441  0.85734380  0.65418468    -0.08100
C659        C  0.11227505  0.90379348  0.64962695    -0.02600
C660        C  0.13448130  0.92797095  0.68363369     0.04200
N661        N  0.13426363  0.97561661  0.68341395     0.66700
H662        H  0.17002571  0.92458534  0.74656272     0.15600
H663        H  0.09389295  0.83824918  0.62809367     0.15300
N664        N  0.12939926  0.78698194  0.69102534     0.74400
O665        O  0.09758619  0.99639886  0.68221968    -0.39000
O666        O  0.16958106  0.99653228  0.69234543    -0.39000
O667        O  0.09611318  0.76651777  0.67542666    -0.39700
O668        O  0.16522777  0.76584232  0.69823393    -0.39800
C669        C  0.08217191  0.68488767  0.84605702    -0.12000
C670        C  0.09193101  0.67187063  0.89041737     0.05000
C671        C  0.12595819  0.69577451  0.91325308    -0.07300
C672        C  0.14888151  0.73089177  0.89167607    -0.08100
C673        C  0.13920481  0.74394039  0.84711597    -0.02600
C674        C  0.10527376  0.71974273  0.82439006     0.04200
N675        N  0.09527436  0.72786255  0.77818818     0.66700
H676        H  0.05711145  0.66696408  0.82720724     0.15600
H677        H  0.17419831  0.74844257  0.91048566     0.15300
N678        N  0.13730971  0.68560604  0.95890185     0.74400
O679        O  0.11434945  0.70427677  0.74909349    -0.39000
O680        O  0.05951116  0.74784553  0.76790550    -0.39000
O681        O  0.17404037  0.66684952  0.96795405    -0.39700
O682        O  0.11390254  0.70111445  0.99028799    -0.39800
C683        C  0.27938449  0.89877909  0.83113497    -0.12000
C684        C  0.26245613  0.85894314  0.84967224     0.05000
C685        C  0.28515885  0.84130349  0.88779775    -0.07300
C686        C  0.32282270  0.86327746  0.90603654    -0.08100
C687        C  0.33955997  0.90328411  0.88747353    -0.02600
C688        C  0.31686262  0.92067779  0.84925927     0.04200
N689        N  0.33166527  0.96035786  0.82749556     0.66700
H690        H  0.26336670  0.91363166  0.80194838     0.15600
H691        H  0.33909440  0.84859049  0.93516927     0.15300
N692        N  0.27101306  0.80072481  0.90832844     0.74400
O693        O  0.35247614  0.95762074  0.79085701    -0.39000
O694        O  0.31656764  0.99747676  0.83989330    -0.39000
O695        O  0.28890347  0.76452231  0.89694533    -0.39700
O696        O  0.24643795  0.80183719  0.94262313    -0.39800
C697        C  0.16547106  0.90177692  0.37121522    -0.12000
C698        C  0.14438727  0.86516554  0.35062589     0.05000
C699        C  0.10396437  0.85029579  0.37047764    -0.07300
C700        C  0.08631198  0.87132772  0.40891437    -0.08100
C701        C  0.10734367  0.90783885  0.42954628    -0.02600
C702        C  0.14777104  0.92276766  0.40985886     0.04200
N703        N  0.17201963  0.95879472  0.42900695     0.66700
H704        H  0.19647293  0.91424908  0.35753578     0.15600
H705        H  0.05533089  0.85874730  0.42256387     0.15300
N706        N  0.07980575  0.81380124  0.35215917     0.74400
O707        O  0.20012417  0.95124811  0.45985992    -0.39000
O708        O  0.17028907  0.99674455  0.41073505    -0.39000
O709        O  0.08347752  0.77581384  0.37008008    -0.39700
O710        O  0.04917628  0.82103804  0.32377082    -0.39800
C711        C  0.13432294  0.68963681  0.17426602    -0.12000
C712        C  0.10635375  0.66328722  0.20110499     0.05000
C713        C  0.09742743  0.67819217  0.24527773    -0.07300
C714        C  0.11610752  0.71822916  0.26102760    -0.08100
C715        C  0.14401114  0.74491248  0.23399538    -0.02600
C716        C  0.15228474  0.73014550  0.18942420     0.04200
N717        N  0.17605320  0.75684972  0.15754852     0.66700
H718        H  0.14067935  0.67978100  0.13994584     0.15600
H719        H  0.10918147  0.72802669  0.29521640     0.15300
N720        N  0.07017418  0.65273349  0.27515147     0.74400
O721        O  0.20086390  0.73819592  0.12906715    -0.39000
O722        O  0.16398851  0.79657382  0.15070955    -0.39000
O723        O  0.08656983  0.61965995  0.29578111    -0.39700
O724        O  0.03149623  0.66622311  0.28486962    -0.39800
C725        C  0.32613840  0.86141906  0.17812533    -0.12000
C726        C  0.34595970  0.89857779  0.19802970     0.05000
C727        C  0.32474102  0.91632193  0.23662579    -0.07300
C728        C  0.28555315  0.89679699  0.25397120    -0.08100
C729        C  0.26554529  0.85942826  0.23403677    -0.02600
C730        C  0.28682454  0.84204502  0.19516704     0.04200
N731        N  0.26898126  0.80528740  0.17122147     0.66700
H732        H  0.34101803  0.84716625  0.14838439     0.15600
H733        H  0.27056948  0.91154781  0.28338610     0.15300
N734        N  0.34190133  0.95476517  0.25853158     0.74400
O735        O  0.25840076  0.81079193  0.13044477    -0.39000
O736        O  0.27670029  0.76646423  0.18568263    -0.39000
O737        O  0.32467112  0.99235630  0.25055517    -0.39700
O738        O  0.36942657  0.95030425  0.29047097    -0.39800
C739        C  0.82341277  0.88126790  0.40950918    -0.12000
C740        C  0.79604076  0.89781724  0.44385824     0.05000
C741        C  0.74929122  0.89766921  0.43671213    -0.07300
C742        C  0.73117890  0.88042138  0.39655015    -0.08100
C743        C  0.75862932  0.86312285  0.36251683    -0.02600
C744        C  0.80561198  0.86520654  0.36873987     0.04200
N745        N  0.83581783  0.85405104  0.33308962     0.66700
H746        H  0.85932299  0.88290058  0.41354734     0.15600
H747        H  0.69523354  0.87915681  0.39266433     0.15300
N748        N  0.71957054  0.91284346  0.47082410     0.74400
O749        O  0.82704471  0.86584399  0.29319613    -0.39000
O750        O  0.87442381  0.83952089  0.34222212    -0.39000
O751        O  0.69540380  0.94663898  0.46376716    -0.39700
O752        O  0.71338142  0.88937234  0.50555716    -0.39800
C753        C  0.73647672  0.71207200  0.22201670    -0.12000
C754        C  0.75890047  0.73695817  0.25500165     0.05000
C755        C  0.80083713  0.72022183  0.27049723    -0.07300
C756        C  0.81899414  0.68087030  0.25249137    -0.08100
C757        C  0.79674055  0.65637760  0.21925434    -0.02600
C758        C  0.75448543  0.67250339  0.20444923     0.04200
N759        N  0.72906773  0.64928931  0.17141086     0.66700
H760        H  0.70431214  0.72322687  0.20952988     0.15600
H761        H  0.85131351  0.66966334  0.26461493     0.15300
N762        N  0.82638428  0.74278783  0.30391813     0.74400
O763        O  0.70335555  0.61830385  0.18336899    -0.39000
O764        O  0.72760161  0.66366761  0.13148202    -0.39000
O765        O  0.81485283  0.73993666  0.34457552    -0.39700
O766        O  0.86545618  0.75530351  0.29465580    -0.39800
C767        C  0.62812217  0.89993567  0.25257759    -0.12000
C768        C  0.64077444  0.85592419  0.24285907     0.05000
C769        C  0.61515873  0.83334693  0.20990933    -0.07300
C770        C  0.57883904  0.85476269  0.18791287    -0.08100
C771        C  0.56635077  0.89887782  0.19765706    -0.02600
C772        C  0.59228928  0.92161417  0.23032481     0.04200
N773        N  0.58452167  0.96760982  0.23987995     0.66700
H774        H  0.64730594  0.91865500  0.27679065     0.15600
H775        H  0.55970640  0.83621407  0.16349888     0.15300
N776        N  0.62456074  0.78813104  0.19902602     0.74400
O777        O  0.58360566  0.98051551  0.28011094    -0.39000
O778        O  0.58746112  0.99613010  0.20870896    -0.39000
O779        O  0.60902485  0.75729893  0.22324030    -0.39700
O780        O  0.64210900  0.77895070  0.16175473    -0.39800
C781        C  0.74014295  0.21195233  0.45203797    -0.12000
C782        C  0.78528990  0.19946100  0.45097891     0.05000
C783        C  0.81056444  0.21010069  0.41233800    -0.07300
C784        C  0.79129404  0.23474037  0.37699245    -0.08100
C785        C  0.74651711  0.24837308  0.37840610    -0.02600
C786        C  0.72057933  0.23646789  0.41637228     0.04200
N787        N  0.67515349  0.25096932  0.42038297     0.66700
H788        H  0.72050959  0.20435067  0.48159299     0.15600
H789        H  0.81113162  0.24195516  0.34746800     0.15300
N790        N  0.85484860  0.19304788  0.40697023     0.74400
O791        O  0.64609190  0.22482297  0.43589275    -0.39000
O792        O  0.66552171  0.29156970  0.41524981    -0.39000
O793        O  0.86102416  0.15878667  0.38362959    -0.39700
O794        O  0.88796580  0.21590443  0.41883468    -0.39800
C795        C  0.79078795  0.38482938  0.28115088    -0.12000
C796        C  0.75632103  0.36308810  0.25745491     0.05000
C797        C  0.74507321  0.38005967  0.21426933    -0.07300
C798        C  0.76682947  0.41788180  0.19686444    -0.08100
C799        C  0.80108669  0.43983849  0.22058022    -0.02600
C800        C  0.81292024  0.42249993  0.26344076     0.04200
N801        N  0.84668528  0.44311505  0.29008631     0.66700
H802        H  0.80037630  0.37304936  0.31430823     0.15600
H803        H  0.75716426  0.42953135  0.16367124     0.15300
N804        N  0.71276685  0.35851801  0.18654654     0.74400
O805        O  0.83782526  0.47833431  0.31103329    -0.39000
O806        O  0.88284215  0.42282936  0.29802944    -0.39000
O807        O  0.67752085  0.37883448  0.17514939    -0.39700
O808        O  0.72271951  0.32244010  0.16764317    -0.39800
C809        C  0.61988639  0.26397004  0.21372054    -0.12000
C810        C  0.63255068  0.25071015  0.25753933     0.05000
C811        C  0.60698869  0.21670807  0.27849871    -0.07300
C812        C  0.57129775  0.19673779  0.25554962    -0.08100
C813        C  0.55930907  0.20930037  0.21152723    -0.02600
C814        C  0.58406874  0.24379353  0.19077961     0.04200
N815        N  0.57442571  0.25787600  0.14579767     0.66700
H816        H  0.63840882  0.28972951  0.19648699     0.15600
H817        H  0.55270396  0.17094953  0.27273297     0.15300
N818        N  0.61599046  0.20205064  0.32344585     0.74400
O819        O  0.55431002  0.29421288  0.13880891    -0.39000
O820        O  0.59135744  0.23728231  0.11323429    -0.39000
O821        O  0.58858876  0.21137753  0.35407042    -0.37100
O822        O  0.64437889  0.17159902  0.33020145    -0.39800
loop_ 
_geom_bond_atom_site_label_1 
_geom_bond_atom_site_label_2 
_geom_bond_distance 
_geom_bond_site_symmetry_2 
_ccdc_geom_bond_type 
C1            N2   1.370       .  A
C1            N6   1.366       .  A
C1          C796   1.517       .  S
N2            C3   1.369       .  A
C3            N4   1.361       .  A
C3          C810   1.513       .  S
N4            C5   1.358       .  A
C5            N6   1.364       .  A
C5          C785   1.491       .  S
C7            N8   1.363       .  A
C7           N12   1.370       .  A
C7          C754   1.519       .  S
N8            C9   1.363       .  A
C9           N10   1.366       .  A
C9          C743   1.507       .  S
N10          C11   1.370       .  A
C11          N12   1.369       .  A
C11         C768   1.522       .  S
C13          N14   1.366       .  A
C13          N18   1.372       .  A
C13         C729   1.524       .  S
N14          C15   1.366       .  A
C15          N16   1.369       .  A
C15         C715   1.519       .  S
N16          C17   1.369       .  A
C17          N18   1.371       .  A
C17         C698   1.531       .  S
C19          N20   1.364       .  A
C19          N24   1.373       .  A
C19         C684   1.525       .  S
N20          C21   1.362       .  A
C21          N22   1.364       .  A
C21         C656   1.505       .  S
N22          C23   1.366       .  A
C23          N24   1.376       .  A
C23         C673   1.524       .  S
C25          N26   1.371       .  A
C25          N30   1.371       .  A
C25         C614   1.525       .  S
N26          C27   1.368       .  A
C27          N28   1.360       .  A
C27         C645   1.515       .  S
N28          C29   1.363       .  A
C29          N30   1.370       .  A
C29         C628   1.512       .  S
C31          N32   1.366       .  A
C31          N36   1.369       .  A
C31         C572   1.514       .  S
N32          C33   1.367       .  A
C33          N34   1.362       .  A
C33         C586   1.504       .  S
N34          C35   1.365       .  A
C35          N36   1.365       .  A
C35         C600   1.506       .  S
C37          N38   1.373       .  A
C37          N42   1.372       .  A
C37         C561   1.527       .  S
N38          C39   1.371       .  A
C39          N40   1.367       .  A
C39         C544   1.523       .  S
N40          C41   1.364       .  A
C41          N42   1.369       .  A
C41         C530   1.524       .  S
C43          N44   1.365       .  A
C43          N48   1.370       .  A
C43         C516   1.513       .  S
N44          C45   1.365       .  A
C45          N46   1.362       .  A
C45         C491   1.510       .  S
N46          C47   1.364       .  A
C47          N48   1.368       .  A
C47         C505   1.517       .  S
O49         Ti67   2.133       .  S
O49         Ti66   2.149   1_455  S
O50          C51   1.266       .  A
O50         Ti58   2.119       .  S
C51         C782   1.490       .  S
C51          O87   1.275       .  A
O52          C85   1.264       .  A
O52         Ti89   2.076       .  S
O53         Ti89   2.166       .  S
O53         Ti67   2.155       .  S
C54         C435   1.461       .  S
C54          O69   1.262       .  A
C54         O102   1.275       .  A
O55          C57   1.261       .  A
O55         Ti58   2.059       .  S
C56         C617   1.518       .  S
C56          O91   1.271       .  A
C56          O77   1.278       .  A
C57         C474   1.460       .  S
C57          O70   1.280       .  A
Ti58         O71   2.133       .  S
Ti58         O74   2.159       .  S
Ti58         O60   2.160       .  S
Ti58         O77   2.172       .  S
Ti59        O104   2.153   1_455  S
Ti59         O99   2.154   1_455  S
Ti59         O78   2.147       .  S
Ti59         O76   2.094   1_455  S
Ti59         O73   2.160       .  S
Ti59         O82   2.134       .  S
O60         Ti66   2.172       .  S
O61        Ti103   2.141   1_545  S
O61         Ti65   2.159       .  S
C62         C659   1.501       .  S
C62          O82   1.268       .  A
C62          O86   1.271       .  A
O63         Ti97   2.143       .  S
O63        Ti103   2.130       .  S
C64         C740   1.507       .  S
C64          O90   1.274       .  A
C64          O96   1.274       .  A
Ti65         O80   2.146       .  S
Ti65         O71   2.169       .  S
Ti65        O102   2.144       .  S
Ti65         O91   2.146       .  S
Ti65         O87   2.165       .  S
Ti66         O74   2.160       .  S
Ti66         O94   2.176   1_655  S
Ti66         O70   2.165       .  S
Ti66         O81   2.178   1_655  S
Ti67         O72   2.172       .  S
Ti67         O98   2.170       .  S
Ti67         O92   2.131       .  S
Ti67         O95   2.126       .  S
O68          C84   1.265       .  A
O68        Ti103   2.125       .  S
O69        Ti103   2.061   1_545  S
O72         Ti89   2.157       .  S
O73          C88   1.275       .  A
O75          C84   1.276       .  A
O75         Ti97   2.183       .  S
O76          C79   1.265       .  A
O78         Ti89   2.144   1_565  S
C79         C460   1.435       .  S
C79          O93   1.268       .  A
O80        Ti103   2.158   1_545  S
O81          C83   1.285       .  A
C83         C533   1.522       .  S
C83          O98   1.282       .  A
C84         C575   1.513       .  S
C85         C449   1.450       .  S
C85          O95   1.272       .  A
O86         Ti89   2.153   1_565  S
C88         C701   1.529       .  S
C88         O100   1.279       .  A
Ti89        O100   2.186   1_545  S
O90         Ti97   2.155       .  S
O92         C101   1.269       .  A
O93         Ti97   2.100       .  S
O94         C101   1.278       .  A
O96        Ti103   2.159       .  S
Ti97        O104   2.148       .  S
Ti97         O99   2.160       .  S
C101        C488   1.509       .  S
O105       Ti123   2.154       .  S
O105       Ti122   2.136   1_565  S
O106        C107   1.276       .  A
O106       Ti114   2.146       .  S
C107        C813   1.507       .  S
C107        O143   1.276       .  A
O108        C141   1.273       .  A
O108       Ti145   2.130   1_554  S
O109       Ti145   2.156   1_554  S
O109       Ti123   2.155       .  S
C110        C376   1.468       .  S
C110        O125   1.276       .  A
C110        O158   1.263       .  A
O111        C113   1.280       .  A
O111       Ti114   2.168       .  S
C112        C519   1.514       .  S
C112        O147   1.269       .  A
C112        O133   1.280       .  A
C113        C407   1.471       .  S
C113        O126   1.254       .  A
Ti114       O127   2.151       .  S
Ti114       O130   2.152       .  S
Ti114       O116   2.156       .  S
Ti114       O133   2.185       .  S
Ti115       O160   2.160       .  S
Ti115       O155   2.171       .  S
Ti115       O134   2.140   1_545  S
Ti115       O132   2.130       .  S
Ti115       O129   2.184   1_545  S
Ti115       O138   2.178   1_545  S
O116       Ti122   2.137       .  S
O117       Ti159   2.167       .  S
O117       Ti121   2.150       .  S
C118        C687   1.525       .  S
C118        O138   1.282       .  A
C118        O142   1.279       .  A
O119       Ti153   2.138       .  S
O119       Ti159   2.160   1_556  S
C120        C642   1.516       .  S
C120        O146   1.274       .  A
C120        O152   1.284       .  A
Ti121       O136   2.164       .  S
Ti121       O127   2.115       .  S
Ti121       O158   2.063       .  S
Ti121       O147   2.128       .  S
Ti121       O143   2.159       .  S
Ti122       O130   2.155       .  S
Ti122       O150   2.144   1_545  S
Ti122       O126   2.029       .  S
Ti122       O137   2.132   1_545  S
Ti123       O128   2.153       .  S
Ti123       O154   2.172       .  S
Ti123       O148   2.172       .  S
Ti123       O151   2.072       .  S
O124        C140   1.273       .  A
O124       Ti159   2.155   1_556  S
O125       Ti159   2.144       .  S
O128       Ti145   2.157   1_554  S
O129        C144   1.280       .  A
O131        C140   1.266       .  A
O131       Ti153   2.142       .  S
O132        C135   1.277       .  A
O134       Ti145   2.133       .  S
C135        C421   1.443       .  S
C135        O149   1.259       .  A
O136       Ti159   2.155       .  S
O137        C139   1.266       .  A
C139        C726   1.515       .  S
C139        O154   1.277       .  A
C140        C558   1.513       .  S
C141        C390   1.462       .  S
C141        O151   1.265       .  A
O142       Ti145   2.167       .  S
C144        C603   1.508       .  S
C144        O156   1.271       .  A
Ti145       O156   2.128       .  S
O146       Ti153   2.142       .  S
O148        C157   1.272       .  A
O149       Ti153   2.070       .  S
O150        C157   1.266       .  A
O152       Ti159   2.189   1_556  S
Ti153       O160   2.169       .  S
Ti153       O155   2.155       .  S
C157        C771   1.521       .  S
O161       Ti179   2.136       .  S
O161       Ti178   2.165   1_556  S
O162        C163   1.269       .  A
O162       Ti170   2.137       .  S
C163        C799   1.517       .  S
C163        O199   1.277       .  A
O164        C197   1.281       .  A
O164       Ti201   2.166       .  S
O165       Ti201   2.156       .  S
O165       Ti179   2.152       .  S
C166        C348   1.447       .  S
C166        O181   1.266       .  A
C166        O214   1.275       .  A
O167        C169   1.260       .  A
O167       Ti170   2.058       .  S
C168        C757   1.514       .  S
C168        O203   1.277       .  A
C168        O189   1.270       .  A
C169        C334   1.465       .  S
C169        O182   1.273       .  A
Ti170       O183   2.123       .  S
Ti170       O186   2.159       .  S
Ti170       O172   2.150       .  S
Ti170       O189   2.141       .  S
Ti171       O216   2.162   1_556  S
Ti171       O211   2.166   1_556  S
Ti171       O190   2.117       .  S
Ti171       O188   2.082   1_556  S
Ti171       O185   2.144       .  S
Ti171       O194   2.135       .  S
O172       Ti178   2.157       .  S
O173       Ti215   2.151   1_655  S
O173       Ti177   2.158       .  S
C174        C670   1.517       .  S
C174        O194   1.267       .  A
C174        O198   1.279       .  A
O175       Ti209   2.146       .  S
O175       Ti215   2.145       .  S
C176        C502   1.515       .  S
C176        O202   1.279       .  A
C176        O208   1.272       .  A
Ti177       O192   2.146       .  S
Ti177       O183   2.153       .  S
Ti177       O214   2.125       .  S
Ti177       O203   2.165       .  S
Ti177       O199   2.177       .  S
Ti178       O186   2.161       .  S
Ti178       O206   2.145   1_554  S
Ti178       O182   2.137       .  S
Ti178       O193   2.193   1_554  S
Ti179       O184   2.147       .  S
Ti179       O210   2.111       .  S
Ti179       O204   2.144       .  S
Ti179       O207   2.060       .  S
O180        C196   1.267       .  A
O180       Ti215   2.140       .  S
O181       Ti215   2.094   1_655  S
O184       Ti201   2.157       .  S
O185        C200   1.276       .  A
O187        C196   1.273       .  A
O187       Ti209   2.156       .  S
O188        C191   1.261       .  A
O190       Ti201   2.155   1_455  S
C191        C323   1.442       .  S
C191        O205   1.268       .  A
O192       Ti215   2.150   1_655  S
O193        C195   1.280       .  A
C195        C589   1.506       .  S
C195        O210   1.265       .  A
C196        C712   1.511       .  S
C197        C362   1.465       .  S
C197        O207   1.261       .  A
O198       Ti201   2.181   1_455  S
C200        C547   1.517       .  S
C200        O212   1.281       .  A
Ti201       O212   2.179   1_655  S
O202       Ti209   2.183       .  S
O204        C213   1.271       .  A
O205       Ti209   2.096       .  S
O206        C213   1.270       .  A
O208       Ti215   2.134       .  S
Ti209       O216   2.162       .  S
Ti209       O211   2.167       .  S
C213        C631   1.508       .  S
N217        C222   1.346       .  A
N217        C221   1.340       .  A
N217        H249   1.042       .  S
N218        C225   1.344       .  A
N218        C226   1.345       .  A
N219        C224   1.344       .  A
N219        C223   1.345       .  A
N219        H250   1.044       .  S
N220        C227   1.337       .  A
N220        C228   1.334       .  A
C221        C229   1.382       .  A
C221        C237   1.387       .  A
C222        C238   1.408       .  A
C222        C230   1.391       .  A
C223        C231   1.381       .  A
C223        C240   1.390       .  A
C224        C239   1.408       .  A
C224        C232   1.391       .  A
C225        C237   1.396       .  A
C225        C233   1.384       .  A
C226        C240   1.402       .  A
C226        C234   1.387       .  A
C227        C235   1.385   1_655  A
C227        C238   1.393       .  A
C228        C236   1.389   1_655  A
C228        C239   1.395       .  A
C229        C230   1.375       .  A
C229        H241   1.082       .  S
C230        H242   1.082       .  S
C231        C232   1.377       .  A
C231        H243   1.081       .  S
C232        H244   1.082       .  S
C233        C234   1.376       .  A
C233        H245   1.082       .  S
C234        H246   1.083       .  S
C235        C236   1.375       .  A
C235        H247   1.082       .  S
C236        H248   1.082       .  S
C237        C477   1.466       .  S
C238        C351   1.460       .  S
C239        C463   1.452       .  S
C240        C365   1.473       .  S
N251        C256   1.347       .  A
N251        C255   1.348       .  A
N251        H283   1.043       .  S
N252        C259   1.342   1_545  A
N252        C260   1.340       .  A
N253        C258   1.341       .  A
N253        C257   1.337       .  A
N253        H284   1.041       .  S
N254        C261   1.336   1_545  A
N254        C262   1.341       .  A
C255        C263   1.390       .  A
C255        C271   1.408       .  A
C256        C272   1.398       .  A
C256        C264   1.385       .  A
C257        C265   1.385       .  A
C257        C274   1.391       .  A
C258        C273   1.399       .  A
C258        C266   1.388       .  A
C259        C271   1.384       .  A
C259        C267   1.381       .  A
C260        C274   1.406       .  A
C260        C268   1.391       .  A
C261        C269   1.387       .  A
C261        C272   1.387       .  A
C262        C270   1.383   1_545  A
C262        C273   1.397       .  A
C263        C264   1.372       .  A
C263        H275   1.082       .  S
C264        H276   1.082       .  S
C265        C266   1.379       .  A
C265        H277   1.082       .  S
C266        H278   1.081       .  S
C267        C268   1.369   1_565  A
C267        H279   1.082       .  S
C268        H280   1.081       .  S
C269        C270   1.378       .  A
C269        H281   1.082       .  S
C270        H282   1.082       .  S
C271        C432   1.463       .  S
C272        C404   1.459       .  S
C273        C446   1.455       .  S
C274        C418   1.448       .  S
N285        C290   1.348       .  A
N285        C289   1.349       .  A
N285        H317   1.037       .  S
N286        C293   1.337       .  A
N286        C294   1.343       .  A
N287        C292   1.339       .  A
N287        C291   1.343       .  A
N287        H318   1.033       .  S
N288        C295   1.342       .  A
N288        C296   1.341       .  A
C289        C297   1.383       .  A
C289        C305   1.396       .  A
C290        C306   1.411       .  A
C290        C298   1.391       .  A
C291        C299   1.389       .  A
C291        C308   1.399       .  A
C292        C307   1.389       .  A
C292        C300   1.384       .  A
C293        C305   1.394       .  A
C293        C301   1.389       .  A
C294        C308   1.397       .  A
C294        C302   1.383       .  A
C295        C303   1.382       .  A
C295        C306   1.388       .  A
C296        C304   1.391       .  A
C296        C307   1.406       .  A
C297        C298   1.368       .  A
C297        H309   1.082       .  S
C298        H310   1.081       .  S
C299        C300   1.373       .  A
C299        H311   1.081   1_554  S
C300        H312   1.082   1_554  S
C301        C302   1.376       .  A
C301        H313   1.082       .  S
C302        H314   1.082       .  S
C303        C304   1.370       .  A
C303        H315   1.083       .  S
C304        H316   1.081       .  S
C305        C337   1.458       .  S
C306        C379   1.463       .  S
C307        C320   1.448       .  S
C308        C393   1.458       .  S
C319        C320   1.397       .  A
C319        C324   1.387   1_554  A
C319        H326   1.084   1_554  S
C320        C321   1.403       .  A
C321        C322   1.386       .  A
C321        N328   1.435       .  S
C322        C323   1.400       .  A
C322        H327   1.085       .  S
C323        C324   1.406   1_554  A
C324        N325   1.429       .  S
N325        O329   1.262       .  A
N325        O330   1.262       .  A
N328        O332   1.263       .  A
N328        O331   1.262       .  A
C333        C334   1.416       .  A
C333        C338   1.384       .  A
C333        H340   1.084       .  S
C334        C335   1.409       .  A
C335        C336   1.394       .  A
C335        N342   1.434       .  S
C336        C337   1.406       .  A
C336        H341   1.085       .  S
C337        C338   1.390       .  A
C338        N339   1.430       .  S
N339        O343   1.262       .  A
N339        O344   1.262       .  A
N342        O346   1.262   1_554  A
N342        O345   1.262   1_554  A
C347        C348   1.395       .  A
C347        C352   1.389       .  A
C347        H354   1.084       .  S
C348        C349   1.408       .  A
C349        C350   1.392       .  A
C349        N356   1.429   1_655  S
C350        C351   1.397       .  A
C350        H355   1.084   1_655  S
C351        C352   1.410       .  A
C352        N353   1.431       .  S
N353        O357   1.262       .  A
N353        O358   1.262       .  A
N356        O360   1.262   1_455  A
N356        O359   1.262       .  A
C361        C362   1.411       .  A
C361        C366   1.396       .  A
C361        H368   1.085       .  S
C362        C363   1.400       .  A
C363        C364   1.392       .  A
C363        N370   1.426       .  S
C364        C365   1.407       .  A
C364        H369   1.084       .  S
C365        C366   1.405       .  A
C366        N367   1.436       .  S
N367        O371   1.263       .  A
N367        O372   1.263       .  A
N370        O374   1.262   1_655  A
N370        O373   1.262       .  A
C375        C376   1.414       .  A
C375        C380   1.385       .  A
C375        H382   1.084       .  S
C376        C377   1.406       .  A
C377        C378   1.397       .  A
C377        N384   1.429   1_554  S
C378        C379   1.407       .  A
C378        H383   1.084       .  S
C379        C380   1.394       .  A
C380        N381   1.429       .  S
N381        O385   1.262       .  A
N381        O386   1.262       .  A
N384        O388   1.262       .  A
N384        O387   1.262       .  A
C389        C390   1.404       .  A
C389        C394   1.380       .  A
C389        H396   1.084       .  S
C390        C391   1.411       .  A
C391        C392   1.398       .  A
C391        N398   1.429   1_554  S
C392        C393   1.401       .  A
C392        H397   1.084   1_554  S
C393        C394   1.403       .  A
C394        N395   1.431       .  S
N395        O399   1.262       .  A
N395        O400   1.262       .  A
N398        O402   1.262       .  A
N398        O401   1.261       .  A
C403        C404   1.411   1_545  A
C403        C408   1.396       .  A
C403        H410   1.084       .  S
C404        C405   1.387       .  A
C405        C406   1.381       .  A
C405        N412   1.430       .  S
C406        C407   1.421   1_565  A
C406        H411   1.084       .  S
C407        C408   1.401       .  A
C408        N409   1.428       .  S
N409        O413   1.262       .  A
N409        O414   1.262       .  A
N412        O416   1.262       .  A
N412        O415   1.262       .  A
C417        C418   1.396       .  A
C417        C422   1.388       .  A
C417        H424   1.085       .  S
C418        C419   1.404       .  A
C419        C420   1.386       .  A
C419        N426   1.431       .  S
C420        C421   1.396       .  A
C420        H425   1.081       .  S
C421        C422   1.409       .  A
C422        N423   1.431       .  S
N423        O427   1.262       .  A
N423        O428   1.262       .  A
N426        O430   1.262       .  A
N426        O429   1.262   1_545  A
C431        C432   1.409   1_545  A
C431        C436   1.396       .  A
C431        H438   1.084       .  S
C432        C433   1.393       .  A
C433        C434   1.385       .  A
C433        N440   1.429       .  S
C434        C435   1.412   1_565  A
C434        H439   1.084       .  S
C435        C436   1.404       .  A
C436        N437   1.432       .  S
N437        O441   1.262       .  A
N437        O442   1.262       .  A
N440        O444   1.262       .  A
N440        O443   1.262       .  A
C445        C446   1.398       .  A
C445        C450   1.381       .  A
C445        H452   1.085   1_545  S
C446        C447   1.403       .  A
C447        C448   1.397       .  A
C447        N454   1.430       .  S
C448        C449   1.404       .  A
C448        H453   1.084       .  S
C449        C450   1.408       .  A
C450        N451   1.431   1_545  S
N451        O455   1.262       .  A
N451        O456   1.262   1_565  A
N454        O458   1.262       .  A
N454        O457   1.262       .  A
C459        C460   1.401       .  A
C459        C464   1.389       .  A
C459        H466   1.085   1_655  S
C460        C461   1.400       .  A
C461        C462   1.384       .  A
C461        N468   1.430       .  S
C462        C463   1.401       .  A
C462        H467   1.084       .  S
C463        C464   1.400       .  A
C464        N465   1.430   1_655  S
N465        O469   1.262       .  A
N465        O470   1.262   1_455  A
N468        O472   1.262       .  A
N468        O471   1.262       .  A
C473        C474   1.395       .  A
C473        C478   1.399       .  A
C473        H480   1.084       .  S
C474        C475   1.416       .  A
C475        C476   1.386       .  A
C475        N482   1.429       .  S
C476        C477   1.389       .  A
C476        H481   1.084       .  S
C477        C478   1.419       .  A
C478        N479   1.430       .  S
N479        O483   1.261       .  A
N479        O484   1.262       .  A
N482        O486   1.261       .  A
N482        O485   1.262       .  A
C487        C488   1.411       .  A
C487        C492   1.408       .  A
C487        H494   1.084       .  S
C488        C489   1.414       .  A
C489        C490   1.413       .  A
C489        N496   1.428       .  S
C490        C491   1.413       .  A
C490        H495   1.082       .  S
C491        C492   1.416       .  A
C492        N493   1.431       .  S
N493        O497   1.262       .  A
N493        O498   1.262       .  A
N496        O500   1.262       .  A
N496        O499   1.262       .  A
C501        C502   1.408       .  A
C501        C506   1.403       .  A
C501        H508   1.083       .  S
C502        C503   1.418       .  A
C503        C504   1.419       .  A
C503        N510   1.429       .  S
C504        C505   1.415       .  A
C504        H509   1.083       .  S
C505        C506   1.419       .  A
C506        N507   1.429       .  S
N507        O511   1.262       .  A
N507        O512   1.262       .  A
N510        O514   1.262       .  A
N510        O513   1.262       .  A
C515        C516   1.414       .  A
C515        C520   1.416       .  A
C515        H522   1.083       .  S
C516        C517   1.417       .  A
C517        C518   1.409       .  A
C517        N524   1.433       .  S
C518        C519   1.413       .  A
C518        H523   1.083       .  S
C519        C520   1.415       .  A
C520        N521   1.429       .  S
N521        O525   1.262       .  A
N521        O526   1.262       .  A
N524        O528   1.262       .  A
N524        O527   1.262       .  A
C529        C530   1.412       .  A
C529        C534   1.416       .  A
C529        H536   1.083       .  S
C530        C531   1.423       .  A
C531        C532   1.414       .  A
C531        N538   1.429       .  S
C532        C533   1.409       .  A
C532        H537   1.083       .  S
C533        C534   1.422       .  A
C534        N535   1.430       .  S
N535        O539   1.262       .  A
N535        O540   1.262       .  A
N538        O542   1.262       .  A
N538        O541   1.262       .  A
C543        C544   1.411       .  A
C543        C548   1.413       .  A
C543        H550   1.081       .  S
C544        C545   1.420       .  A
C545        C546   1.410       .  A
C545        N552   1.425       .  S
C546        C547   1.407       .  A
C546        H551   1.082       .  S
C547        C548   1.415       .  A
C548        N549   1.424       .  S
N549        O553   1.261       .  A
N549        O554   1.262       .  A
N552        O556   1.263       .  A
N552        O555   1.262       .  A
C557        C558   1.401       .  A
C557        C562   1.408       .  A
C557        H564   1.084       .  S
C558        C559   1.421       .  A
C559        C560   1.416       .  A
C559        N566   1.430       .  S
C560        C561   1.414       .  A
C560        H565   1.083       .  S
C561        C562   1.423       .  A
C562        N563   1.421       .  S
N563        O567   1.262       .  A
N563        O568   1.261       .  A
N566        O570   1.262       .  A
N566        O569   1.262       .  A
C571        C572   1.406       .  A
C571        C576   1.409       .  A
C571        H578   1.083       .  S
C572        C573   1.421       .  A
C573        C574   1.417       .  A
C573        N580   1.429       .  S
C574        C575   1.409       .  A
C574        H579   1.083       .  S
C575        C576   1.424       .  A
C576        N577   1.436       .  S
N577        O581   1.263       .  A
N577        O582   1.263       .  A
N580        O584   1.262       .  A
N580        O583   1.262       .  A
C585        C586   1.402       .  A
C585        C590   1.404       .  A
C585        H592   1.084       .  S
C586        C587   1.421       .  A
C587        C588   1.418       .  A
C587        N594   1.430       .  S
C588        C589   1.407       .  A
C588        H593   1.083       .  S
C589        C590   1.421       .  A
C590        N591   1.432       .  S
N591        O595   1.262       .  A
N591        O596   1.262       .  A
N594        O598   1.262       .  A
N594        O597   1.262       .  A
C599        C600   1.412       .  A
C599        C604   1.417       .  A
C599        H606   1.083       .  S
C600        C601   1.414       .  A
C601        C602   1.404       .  A
C601        N608   1.431       .  S
C602        C603   1.410       .  A
C602        H607   1.084       .  S
C603        C604   1.416       .  A
C604        N605   1.428       .  S
N605        O609   1.262       .  A
N605        O610   1.262       .  A
N608        O612   1.262       .  A
N608        O611   1.262       .  A
C613        C614   1.412       .  A
C613        C618   1.414       .  A
C613        H620   1.083       .  S
C614        C615   1.423       .  A
C615        C616   1.413       .  A
C615        N622   1.426       .  S
C616        C617   1.407       .  A
C616        H621   1.084       .  S
C617        C618   1.420       .  A
C618        N619   1.429       .  S
N619        O623   1.262       .  A
N619        O624   1.262       .  A
N622        O626   1.262       .  A
N622        O625   1.262       .  A
C627        C628   1.411       .  A
C627        C632   1.407       .  A
C627        H634   1.083       .  S
C628        C629   1.420       .  A
C629        C630   1.412       .  A
C629        N636   1.432       .  S
C630        C631   1.409       .  A
C630        H635   1.083       .  S
C631        C632   1.416       .  A
C632        N633   1.430       .  S
N633        O637   1.262       .  A
N633        O638   1.262   1_556  A
N636        O640   1.263       .  A
N636        O639   1.262       .  A
C641        C642   1.408       .  A
C641        C646   1.416       .  A
C641        H648   1.084       .  S
C642        C643   1.424       .  A
C643        C644   1.412       .  A
C643        N650   1.434       .  S
C644        C645   1.405       .  A
C644        H649   1.083       .  S
C645        C646   1.423       .  A
C646        N647   1.429       .  S
N647        O651   1.262       .  A
N647        O652   1.262       .  A
N650        O654   1.263       .  A
N650        O653   1.262       .  A
C655        C656   1.409       .  A
C655        C660   1.411       .  A
C655        H662   1.084       .  S
C656        C657   1.419       .  A
C657        C658   1.410       .  A
C657        N664   1.434       .  S
C658        C659   1.405       .  A
C658        H663   1.084       .  S
C659        C660   1.417       .  A
C660        N661   1.434       .  S
N661        O665   1.262       .  A
N661        O666   1.262       .  A
N664        O668   1.262       .  A
N664        O667   1.263       .  A
C669        C670   1.403       .  A
C669        C674   1.412       .  A
C669        H676   1.084       .  S
C670        C671   1.424       .  A
C671        C672   1.414       .  A
C671        N678   1.430       .  S
C672        C673   1.409       .  A
C672        H677   1.083       .  S
C673        C674   1.425       .  A
C674        N675   1.425       .  S
N675        O679   1.262       .  A
N675        O680   1.262       .  A
N678        O682   1.262       .  A
N678        O681   1.262       .  A
C683        C684   1.413       .  A
C683        C688   1.412       .  A
C683        H690   1.083       .  S
C684        C685   1.419       .  A
C685        C686   1.419       .  A
C685        N692   1.428       .  S
C686        C687   1.415       .  A
C686        H691   1.083       .  S
C687        C688   1.418       .  A
C688        N689   1.427       .  S
N689        O693   1.262       .  A
N689        O694   1.262       .  A
N692        O696   1.262       .  A
N692        O695   1.262       .  A
C697        C698   1.415       .  A
C697        C702   1.420       .  A
C697        H704   1.083       .  S
C698        C699   1.422       .  A
C699        C700   1.415       .  A
C699        N706   1.429       .  S
C700        C701   1.413       .  A
C700        H705   1.083       .  S
C701        C702   1.421       .  A
C702        N703   1.429       .  S
N703        O707   1.262       .  A
N703        O708   1.262       .  A
N706        O710   1.262       .  A
N706        O709   1.262       .  A
C711        C712   1.404       .  A
C711        C716   1.411       .  A
C711        H718   1.083       .  S
C712        C713   1.419       .  A
C713        C714   1.413       .  A
C713        N720   1.430       .  S
C714        C715   1.411       .  A
C714        H719   1.082       .  S
C715        C716   1.425       .  A
C716        N717   1.432       .  S
N717        O721   1.263       .  A
N717        O722   1.262       .  A
N720        O724   1.262       .  A
N720        O723   1.262       .  A
C725        C726   1.403       .  A
C725        C730   1.411       .  A
C725        H732   1.084       .  S
C726        C727   1.422       .  A
C727        C728   1.413       .  A
C727        N734   1.429       .  S
C728        C729   1.411       .  A
C728        H733   1.083       .  S
C729        C730   1.426       .  A
C730        N731   1.426       .  S
N731        O735   1.263       .  A
N731        O736   1.262       .  A
N734        O738   1.262       .  A
N734        O737   1.262       .  A
C739        C740   1.406       .  A
C739        C744   1.413       .  A
C739        H746   1.084       .  S
C740        C741   1.416       .  A
C741        C742   1.414       .  A
C741        N748   1.430       .  S
C742        C743   1.409       .  A
C742        H747   1.084       .  S
C743        C744   1.421       .  A
C744        N745   1.438       .  S
N745        O749   1.263       .  A
N745        O750   1.263       .  A
N748        O752   1.262       .  A
N748        O751   1.262       .  A
C753        C754   1.410       .  A
C753        C758   1.411       .  A
C753        H760   1.083       .  S
C754        C755   1.425       .  A
C755        C756   1.412       .  A
C755        N762   1.430       .  S
C756        C757   1.406       .  A
C756        H761   1.084       .  S
C757        C758   1.421       .  A
C758        N759   1.430       .  S
N759        O763   1.262       .  A
N759        O764   1.262       .  A
N762        O766   1.262       .  A
N762        O765   1.262       .  A
C767        C768   1.409       .  A
C767        C772   1.414       .  A
C767        H774   1.083       .  S
C768        C769   1.422       .  A
C769        C770   1.418       .  A
C769        N776   1.429       .  S
C770        C771   1.411       .  A
C770        H775   1.084       .  S
C771        C772   1.424       .  A
C772        N773   1.434       .  S
N773        O777   1.262       .  A
N773        O778   1.262       .  A
N776        O780   1.262       .  A
N776        O779   1.262       .  A
C781        C782   1.403       .  A
C781        C786   1.412       .  A
C781        H788   1.084       .  S
C782        C783   1.415       .  A
C783        C784   1.403       .  A
C783        N790   1.431       .  S
C784        C785   1.402       .  A
C784        H789   1.084       .  S
C785        C786   1.419       .  A
C786        N787   1.433       .  S
N787        O791   1.262       .  A
N787        O792   1.262       .  A
N790        O794   1.261       .  A
N790        O793   1.262       .  A
C795        C796   1.414       .  A
C795        C800   1.415       .  A
C795        H802   1.083       .  S
C796        C797   1.418       .  A
C797        C798   1.410       .  A
C797        N804   1.430       .  S
C798        C799   1.413       .  A
C798        H803   1.083       .  S
C799        C800   1.417       .  A
C800        N801   1.430       .  S
N801        O805   1.262       .  A
N801        O806   1.262       .  A
N804        O808   1.262       .  A
N804        O807   1.262       .  A
C809        C810   1.411       .  A
C809        C814   1.412       .  A
C809        H816   1.082       .  S
C810        C811   1.422       .  A
C811        C812   1.406       .  A
C811        N818   1.429       .  S
C812        C813   1.406       .  A
C812        H817   1.083       .  S
C813        C814   1.417       .  A
C814        N815   1.429       .  S
N815        O819   1.262       .  A
N815        O820   1.262       .  A
N818        O822   1.262       .  A
N818        O821   1.262       .  A
