geometry optimzed in LAMMPS
_audit_creation_date              2020-12-01 
_audit_creation_method            'lammps2cif' 
_symmetry_space_group_name_H-M    'P1' 
_symmetry_Int_Tables_number       1 
_symmetry_cell_setting            triclinic 
loop_ 
_symmetry_equiv_pos_as_xyz 
  x,y,z 
_cell_length_a                    37.72304573 
_cell_length_b                    37.36298738679596 
_cell_length_c                    61.79329633008098 
_cell_angle_alpha                 90.03051186313411 
_cell_angle_beta                  90.03974699442001 
_cell_angle_gamma                 89.99828201545847 
loop_ 
_atom_site_label 
_atom_site_type_symbol 
_atom_site_fract_x 
_atom_site_fract_y 
_atom_site_fract_z 
_atom_site_charge 
C1          C  0.43711963  0.31053248  0.35661172     0.80000
N2          N  0.45311402  0.33843878  0.34641086    -0.78300
C3          C  0.44117656  0.34997451  0.32690358     0.82500
N4          N  0.41307252  0.33347082  0.31745286    -0.78200
C5          C  0.39711251  0.30536415  0.32736451     0.82600
N6          N  0.40910561  0.29405403  0.34695068    -0.80000
C7          C  0.39548137  0.35527299  0.17951782     0.80000
N8          N  0.42187585  0.37290487  0.19014645    -0.78300
C9          C  0.42964736  0.36487258  0.21101981     0.82500
N10         N  0.41033171  0.33975829  0.22151501    -0.78200
C11         C  0.38487837  0.32098073  0.21094608     0.82600
N12         N  0.37721542  0.32895738  0.18997297    -0.80000
C13         C  0.17430084  0.35204909  0.36333576     0.80000
N14         N  0.19191057  0.32644861  0.35196502    -0.78300
C15         C  0.18364902  0.31979487  0.33099316     0.82500
N16         N  0.15809376  0.33938729  0.32111121    -0.78200
C17         C  0.13922735  0.36401329  0.33244698     0.82600
N18         N  0.14754346  0.37055209  0.35353708    -0.80000
C19         C  0.43485054  0.11863856  0.18349140     0.80000
N20         N  0.45181402  0.09098301  0.19336241    -0.78300
C21         C  0.44066560  0.07870259  0.21293294     0.82500
N22         N  0.41242776  0.09439959  0.22280922    -0.78200
C23         C  0.39571253  0.12243125  0.21317191     0.82600
N24         N  0.40693060  0.13425507  0.19357835    -0.80000
C25         C  0.45803009  0.38062143  0.31625211     0.42300
N26         N  0.99216896  0.42516922  0.31003058     0.01100
C27         C  0.99159938  0.03136433  0.21558215    -0.06700
H28         H  0.00183514  0.39903529  0.20070077     0.06600
C29         C  0.12038177  0.39795710  0.24682902    -0.07100
Co30       Co  0.46964422  0.46537325  0.27021351     0.74200
N31         N  0.99602908  0.42739039  0.23100794    -0.26300
Co32       Co  0.03658954  0.46536289  0.23202199     0.74100
C33         C  0.10772176  0.38064884  0.22712982     0.42400
N34         N  0.09657741  0.42635175  0.29788327     0.00800
N35         N  0.07495203  0.42578714  0.23379309     0.00900
N36         N  0.44794560  0.03022799  0.24075393    -0.47100
H37         H  0.42392750  0.39237294  0.28621827     0.06600
N38         N  0.47127556  0.42676772  0.24606009     0.01100
N39         N  0.07611540  0.00486960  0.23115815     0.00900
C40         C  0.11284372  0.04646370  0.22309181     0.42500
N41         N  0.07190667  0.42676857  0.31302027    -0.25700
C42         C  0.44203361  0.02661602  0.29593508    -0.06600
N43         N  0.98651519  0.39861506  0.32382708    -0.46800
N44         N  0.08425769  0.02831880  0.21581407    -0.47000
C45         C  0.45055101  0.04124633  0.31711405     0.42300
N46         N  0.47128819  0.00416659  0.24395828     0.01100
N47         N  0.06848163  0.00529265  0.31035587    -0.25700
N48         N  0.46886111  0.42575657  0.29404916    -0.26200
N49         N  0.09411963  0.00641198  0.29580383     0.00800
H50         H  0.05587109  0.03836099  0.33799536     0.06700
H51         H  0.14532627  0.03709022  0.25404262     0.06700
N52         N  0.99700228  0.00435124  0.22944176    -0.26300
N53         N  0.09844845  0.42572873  0.24967230    -0.25900
N54         N  0.98942134  0.00189430  0.30876227     0.01100
C55         C  0.45471619  0.38695494  0.22325131     0.42500
C56         C  0.08087850  0.40296336  0.32843802    -0.07100
N57         N  0.09854511  0.00572572  0.24755027    -0.25900
H58         H  0.14265356  0.39113060  0.25705820     0.06700
N59         N  0.44601762  0.40313919  0.24198802    -0.47100
H60         H  0.06688786  0.39864553  0.34348429     0.06700
C61         C  0.10400717  0.05132088  0.31650086     0.42400
C62         C  0.44621793  0.39847281  0.29659993    -0.06600
Co63       Co  0.03109488  0.46472173  0.31210057     0.73800
N64         N  0.12213911  0.40304767  0.30193766    -0.46800
C65         C  0.45920476  0.04847562  0.22315836     0.42600
N66         N  0.97989046  0.02435652  0.32436892    -0.46800
Co67       Co  0.09824364  0.46516909  0.27371756     0.73900
C68         C  0.12241110  0.03156949  0.24405072    -0.07200
C69         C  0.98759550  0.40334516  0.21566235    -0.06700
N70         N  0.46716227  0.00214134  0.29227991    -0.26200
N71         N  0.07965277  0.39933296  0.21982047    -0.47000
H72         H  0.00802752  0.03781596  0.20178431     0.06600
C73         C  0.07256892  0.03263030  0.32419982    -0.07100
Cl74       Cl  0.03392029  0.46519451  0.27203188    -0.50100
C75         C  0.11399675  0.38696739  0.32079131     0.42400
H76         H  0.41893869  0.03118389  0.28592388     0.06600
N77         N  0.11606980  0.03361318  0.29892797    -0.46800
C78         C  0.12823686  0.31146002  0.18603463     0.80000
N79         N  0.11184401  0.33891442  0.19652941    -0.78300
C80         C  0.12397487  0.35026390  0.21605799     0.82500
N81         N  0.15240484  0.33419519  0.22513835    -0.78200
C82         C  0.16886081  0.30677551  0.21500756     0.82600
N83         N  0.15690139  0.29543864  0.19539706    -0.80000
C84         C  0.39244750  0.07299142  0.36147708     0.80000
N85         N  0.37393984  0.09907013  0.35089684    -0.78300
C86         C  0.38164410  0.10727184  0.33000435     0.82500
N87         N  0.40717120  0.08870965  0.31951799    -0.78200
C88         C  0.42655951  0.06358272  0.32993860     0.82600
N89         N  0.41903680  0.05547452  0.35089987    -0.80000
C90         C  0.12788339  0.12289343  0.35549726     0.80000
N91         N  0.15582454  0.13832586  0.34508721    -0.78300
C92         C  0.16666576  0.12571338  0.32549640     0.82500
N93         N  0.14960708  0.09761750  0.31631665    -0.78200
C94         C  0.12163940  0.08223204  0.32641283     0.82600
N95         N  0.11090234  0.09484463  0.34595655    -0.80000
C96         C  0.16414532  0.08445683  0.17737049     0.80000
N97         N  0.18340241  0.10983974  0.18797441    -0.78300
C98         C  0.17899778  0.11522693  0.20951679     0.82500
N99         N  0.15566164  0.09479056  0.22064009    -0.78200
C100        C  0.13528418  0.07038256  0.21022761     0.82600
N101        N  0.13979702  0.06493979  0.18863476    -0.80000
C102        C  0.36197857  0.29707745  0.22351770     0.42300
N103        N  0.32182970  0.25868624  0.23138957     0.01100
C104        C  0.22131560  0.26147052  0.32592714    -0.06700
H105        H  0.35462482  0.23841247  0.33832875     0.06600
C106        C  0.34407042  0.12237545  0.29624661    -0.07100
Co107      Co  0.28379385  0.27996241  0.27188623     0.74200
N108        N  0.32220985  0.25060835  0.31048479    -0.26300
Co109      Co  0.28262809  0.21193843  0.30998112     0.74100
C110        C  0.35874473  0.13108847  0.31735160     0.42400
N111        N  0.32183444  0.15227044  0.24435763     0.00800
N112        N  0.31976282  0.17039513  0.30899845     0.00900
N113        N  0.22167870  0.30389176  0.29986536    -0.47100
H114        H  0.35175944  0.32920008  0.25456214     0.06600
N115        N  0.32290162  0.27669566  0.29604584     0.01100
N116        N  0.24282823  0.17373695  0.30796882     0.00900
C117        C  0.19743641  0.14131306  0.31448066     0.42500
N118        N  0.32201377  0.17842146  0.22994596    -0.25700
C119        C  0.21729018  0.30303344  0.24506501    -0.06600
N120        N  0.34473529  0.26784500  0.21603637    -0.46800
N121        N  0.21642199  0.16932906  0.32183388    -0.47000
C122        C  0.20000185  0.29072705  0.22529619     0.42300
N123        N  0.24517413  0.27841715  0.29584396     0.01100
N124        N  0.24532465  0.17812086  0.22890163    -0.25700
N125        N  0.32210459  0.28119920  0.24784665    -0.26200
N126        N  0.24407542  0.15294711  0.24383386     0.00800
H127        H  0.21622968  0.18625723  0.19914772     0.06700
H128        H  0.20752476  0.10608089  0.28447841     0.06700
N129        N  0.24547407  0.25323484  0.31078433    -0.26300
N130        N  0.31983127  0.14776338  0.29259241    -0.25900
N131        N  0.24478536  0.25746752  0.23164529     0.01100
C132        C  0.36680439  0.28747005  0.31709357     0.42500
C133        C  0.34878934  0.17323742  0.21613653    -0.07100
N134        N  0.24252605  0.15012732  0.29202952    -0.25900
H135        H  0.34856266  0.09903340  0.28625441     0.06700
N136        N  0.34930877  0.29946399  0.29943075    -0.47100
H137        H  0.35510323  0.18994750  0.20237845     0.06700
C138        C  0.20317822  0.13865300  0.22141590     0.42400
C139        C  0.34702643  0.30599224  0.24449382    -0.06600
Co140      Co  0.28357875  0.21820391  0.23001280     0.73800
N141        N  0.34776772  0.12883863  0.24114157    -0.46800
C142        C  0.20519667  0.29472826  0.31839392     0.42600
N143        N  0.21842762  0.26245938  0.21776606    -0.46800
Co144      Co  0.28210089  0.15004779  0.26815465     0.73900
C145        C  0.21458397  0.12839649  0.29477082    -0.07200
C146        C  0.34891949  0.25520595  0.32450631    -0.06700
N147        N  0.24481654  0.28085172  0.24770390    -0.26200
N148        N  0.34213225  0.16083329  0.32457455    -0.47000
H149        H  0.21667169  0.24680085  0.34074124     0.06600
C150        C  0.22065525  0.17110168  0.21381098    -0.07100
Cl151      Cl  0.28314909  0.21502868  0.27001009    -0.50100
C152        C  0.36577966  0.14055279  0.22362261     0.42400
H153        H  0.21045573  0.32516724  0.25554893     0.06600
N154        N  0.21932371  0.12871386  0.23991854    -0.46800
C155        C  0.30245044  0.47219330  0.50162483     0.02100
C156        C  0.27405588  0.44741760  0.50198082     0.02000
C157        C  0.25996990  0.43636268  0.52195172    -0.18500
C158        C  0.27382520  0.44934078  0.54150596     0.02100
C159        C  0.30194225  0.47430765  0.54103968     0.02000
C160        C  0.31632853  0.48505725  0.52119906    -0.18500
H161        H  0.33388156  0.00593445  0.51946013     0.04100
H162        H  0.23854568  0.41702924  0.52228131     0.04100
C163        C  0.01559513  0.20863198  0.03925416     0.02100
C164        C  0.04406768  0.23318161  0.03984108     0.02000
C165        C  0.05946957  0.24483528  0.02044689    -0.18500
C166        C  0.04636866  0.23321814  0.00038215     0.02100
C167        C  0.01749927  0.20899717  0.99972733     0.02000
C168        C  0.50231045  0.19712535  0.01923088    -0.18500
H169        H  0.48083629  0.17784812  0.01883709     0.04100
H170        H  0.08112323  0.26390275  0.02096512     0.04100
C171        C  0.04917811  0.20617165  0.50214949     0.02100
C172        C  0.02333643  0.23350027  0.50228592     0.02000
C173        C  0.01009861  0.24624834  0.52204242    -0.18500
C174        C  0.02221317  0.23235546  0.54182747     0.02100
C175        C  0.04808608  0.20480390  0.54177046     0.02000
C176        C  0.06102800  0.19188389  0.52185196    -0.18500
H177        H  0.08097456  0.17099635  0.52167472     0.04100
H178        H  0.49002058  0.26701740  0.52201270     0.04100
C179        C  0.29505293  0.45605033  0.04238866     0.02100
C180        C  0.27160514  0.48572452  0.04235978     0.02000
C181        C  0.26002514  0.50001751  0.02258278    -0.18500
C182        C  0.27109830  0.48526503  0.00289406     0.02100
C183        C  0.29524475  0.45644078  0.00284898     0.02000
C184        C  0.30661498  0.44176313  0.02254974    -0.18500
H185        H  0.32534692  0.41975212  0.02243684     0.04100
H186        H  0.23100252  0.01111131  0.02124177     0.04100
C187        C  0.37535782  0.37552463  0.85652000     0.80000
N188        N  0.40288792  0.39244927  0.84665376    -0.78300
C189        C  0.41498618  0.38104121  0.82714603     0.82500
N190        N  0.39940468  0.35267435  0.81736449    -0.78200
C191        C  0.37170385  0.33577338  0.82688511     0.82600
N192        N  0.35981356  0.34707280  0.84650539    -0.80000
C193        C  0.42244685  0.10860377  0.86118836     0.80000
N194        N  0.39578653  0.12656983  0.85099410    -0.78300
C195        C  0.38782136  0.11908896  0.83002008     0.82500
N196        N  0.40687956  0.09415869  0.81920097    -0.78200
C197        C  0.43244309  0.07519590  0.82939148     0.82600
N198        N  0.44057046  0.08276012  0.85028034    -0.80000
C199        C  0.18697239  0.06131766  0.85630640     0.80000
N200        N  0.15931503  0.04560221  0.84572563    -0.78300
C201        C  0.14871905  0.05809646  0.82604683     0.82500
N202        N  0.16589120  0.08620176  0.81695238    -0.78200
C203        C  0.19366461  0.10174099  0.82722552     0.82600
N204        N  0.20401810  0.08936793  0.84688482    -0.80000
C205        C  0.14264444  0.33267476  0.86217882     0.80000
N206        N  0.12430996  0.35804305  0.85103849    -0.78300
C207        C  0.13122224  0.36426672  0.82983529     0.82500
N208        N  0.15623538  0.34446574  0.81951871    -0.78200
C209        C  0.17583699  0.32014336  0.83068682     0.82600
N210        N  0.16879375  0.31411221  0.85194476    -0.80000
C211        C  0.14901010  0.10511101  0.67877842     0.80000
N212        N  0.17399080  0.12305085  0.69040970    -0.78300
C213        C  0.17977946  0.11485555  0.71149811     0.82500
N214        N  0.15974518  0.08939060  0.72118358    -0.78200
C215        C  0.13559817  0.07045003  0.70963255     0.82600
N216        N  0.13003744  0.07850476  0.68844201    -0.80000
C217        C  0.37962355  0.06711177  0.68416633     0.80000
N218        N  0.40777025  0.05145234  0.69403024    -0.78300
C219        C  0.41969695  0.06345453  0.71345050     0.82500
N220        N  0.40341830  0.09165678  0.72316939    -0.78200
C221        C  0.37497974  0.10737628  0.71352111     0.82600
N222        N  0.36317229  0.09498071  0.69410660    -0.80000
C223        C  0.35541625  0.30506276  0.81598225     0.42300
N224        N  0.32219277  0.26011336  0.80921442     0.01100
C225        C  0.32394914  0.15426019  0.71656212    -0.06700
H226        H  0.31112478  0.28574032  0.69953411     0.06600
C227        C  0.19238542  0.28373535  0.74620999    -0.07100
Co228      Co  0.34573084  0.22084863  0.76918183     0.74200
N229        N  0.31781351  0.25810398  0.73000769    -0.26300
Co230      Co  0.27838505  0.21903886  0.73115809     0.74100
C231        C  0.20429341  0.30167279  0.72655381     0.42400
N232        N  0.21794481  0.25627246  0.79699894     0.00800
N233        N  0.23869107  0.25752302  0.73304484     0.00900
N234        N  0.36781693  0.15542734  0.74164762    -0.47100
H235        H  0.38982036  0.29475694  0.78586353     0.06600
N236        N  0.34271102  0.25945637  0.74498811     0.01100
N237        N  0.23924716  0.17957418  0.73257876     0.00900
C238        C  0.20305231  0.13732086  0.72473203     0.42500
N239        N  0.24280199  0.25667361  0.81202872    -0.25700
C240        C  0.37286091  0.15762724  0.79669237    -0.06600
N241        N  0.32731885  0.28634804  0.82332595    -0.46800
N242        N  0.23128901  0.15588797  0.71733018    -0.47000
C243        C  0.36413273  0.14226440  0.81760631     0.42300
N244        N  0.34413349  0.18107010  0.74513037     0.01100
N245        N  0.24680109  0.17892701  0.81157497    -0.25700
N246        N  0.34547137  0.26036790  0.79322158    -0.26200
N247        N  0.22120028  0.17785232  0.79698576     0.00800
H248        H  0.25951838  0.14552869  0.83905223     0.06700
H249        H  0.17057817  0.14667012  0.75564087     0.06700
N250        N  0.31829974  0.18081966  0.73067919    -0.26300
N251        N  0.21530576  0.25670197  0.74895479    -0.25900
N252        N  0.32582119  0.18247707  0.80989591     0.01100
C253        C  0.35818800  0.29922445  0.72187788     0.42500
C254        C  0.23405856  0.28138096  0.82694576    -0.07100
N255        N  0.21688918  0.17858273  0.74896386    -0.25900
H256        H  0.17003113  0.28979271  0.75653209     0.06700
N257        N  0.36739947  0.28355881  0.74069514    -0.47100
H258        H  0.24846518  0.28686552  0.84171894     0.06700
C259        C  0.21144666  0.13263048  0.81741649     0.42400
C260        C  0.36755786  0.28802262  0.79610300    -0.06600
Co261      Co  0.28445637  0.21961278  0.81117688     0.73800
N262        N  0.19241983  0.27981433  0.80063794    -0.46800
C263        C  0.35661138  0.13747525  0.72391003     0.42600
N264        N  0.33506141  0.15926756  0.82515437    -0.46800
Co265      Co  0.21717771  0.21729664  0.77301125     0.73900
C266        C  0.19338598  0.15235043  0.74561457    -0.07200
C267        C  0.32555696  0.28207049  0.71449923    -0.06700
N268        N  0.34805048  0.18254465  0.79340796    -0.26200
N269        N  0.23299892  0.28396924  0.71919007    -0.47000
H270        H  0.30755818  0.14798724  0.70270049     0.06600
C271        C  0.24280103  0.15138491  0.82527327    -0.07100
Cl272      Cl  0.28146533  0.21922481  0.77113787    -0.50100
C273        C  0.20091254  0.29704531  0.81906654     0.42400
H274        H  0.39574024  0.15294738  0.78653300     0.06600
N275        N  0.19938190  0.15050185  0.79992013    -0.46800
C276        C  0.41664838  0.33206594  0.67803988     0.80000
N277        N  0.43513415  0.35799841  0.68882605    -0.78300
C278        C  0.42765424  0.36550132  0.70990525     0.82500
N279        N  0.40215779  0.34658307  0.72026043    -0.78200
C280        C  0.38270346  0.32178259  0.70956851     0.82600
N281        N  0.39024207  0.31424937  0.68856191    -0.80000
C282        C  0.18393572  0.37287270  0.68662257     0.80000
N283        N  0.15478659  0.38799430  0.69582107    -0.78300
C284        C  0.14221600  0.37546516  0.71496868     0.82500
N285        N  0.15852735  0.34757035  0.72481384    -0.78200
C286        C  0.18751697  0.33227576  0.71581188     0.82600
N287        N  0.20027514  0.34501803  0.69676358    -0.80000
C288        C  0.45071617  0.38897609  0.72284359     0.42300
N289        N  0.49110936  0.42688477  0.73138103     0.01100
C290        C  0.09303201  0.42250537  0.82548770    -0.06700
H291        H  0.45878557  0.44689816  0.83854172     0.06600
C292        C  0.47060325  0.06131129  0.79582075    -0.07100
Co293      Co  0.02854239  0.40462790  0.77196391     0.74200
N294        N  0.49113825  0.43407297  0.81078413    -0.26300
Co295      Co  0.03108564  0.47224541  0.81047402     0.74100
C296        C  0.45524727  0.05181395  0.81659584     0.42400
N297        N  0.49371879  0.03292742  0.74435473     0.00800
N298        N  0.49568764  0.01393178  0.80879500     0.00900
N299        N  0.09133194  0.38006776  0.79942392    -0.47100
H300        H  0.45979426  0.35645254  0.75387527     0.06600
N301        N  0.48972488  0.40835200  0.79613231     0.01100
N302        N  0.07267341  0.01000761  0.80800870     0.00900
C303        C  0.11806278  0.04240880  0.81482692     0.42500
N304        N  0.49312922  0.00684922  0.72989964    -0.25700
C305        C  0.09366381  0.37970390  0.74487881    -0.06600
N306        N  0.46849937  0.41811925  0.71573340    -0.46800
N307        N  0.09895905  0.01434979  0.82201288    -0.47000
C308        C  0.11120854  0.39172237  0.72519749     0.42300
N309        N  0.06755281  0.40549386  0.79587232     0.01100
N310        N  0.06981191  0.00620418  0.72880962    -0.25700
N311        N  0.49013500  0.40424772  0.74776565    -0.26200
N312        N  0.07138854  0.03115131  0.74390788     0.00800
H313        H  0.09790336  0.99922963  0.69856870     0.06700
H314        H  0.10811450  0.07791152  0.78493906     0.06700
N315        N  0.06805862  0.43072178  0.81081901    -0.26300
N316        N  0.49567016  0.03664982  0.79246963    -0.25900
N317        N  0.06806640  0.42689018  0.73200317     0.01100
C318        C  0.44543346  0.39856813  0.81696032     0.42500
C319        C  0.46635183  0.01238665  0.71612773    -0.07100
N320        N  0.07310273  0.03374578  0.79215420    -0.25900
H321        H  0.46560763  0.08443497  0.78574532     0.06700
N322        N  0.46266676  0.38633016  0.79927802    -0.47100
H323        H  0.45968716  0.99571436  0.70239872     0.06700
C324        C  0.11152503  0.04634681  0.72120173     0.42400
C325        C  0.46497736  0.37977662  0.74400862    -0.06600
Co326      Co  0.02999607  0.46698763  0.73047500     0.73800
N327        N  0.46804211  0.05668321  0.74120738    -0.46800
C328        C  0.10881478  0.38923772  0.81763837     0.42600
N329        N  0.09400589  0.42102723  0.71799887    -0.46800
Co330      Co  0.03348697  0.03433897  0.76820098     0.73900
C331        C  0.10104486  0.05544327  0.79508652    -0.07200
C332        C  0.46421218  0.43007019  0.82468687    -0.06700
N333        N  0.06722721  0.40308427  0.74781120    -0.26200
N334        N  0.47241759  0.02259687  0.82399560    -0.47000
H335        H  0.09858332  0.43730202  0.84015201     0.06600
C336        C  0.09400004  0.01383883  0.71349310    -0.07100
Cl337      Cl  0.03033778  0.46961207  0.77049394    -0.50100
C338        C  0.44980388  0.04524417  0.72367820     0.42400
H339        H  0.09953765  0.35696535  0.75509507     0.06600
N340        N  0.09585050  0.05562146  0.73995201    -0.46800
C341        C  0.19486899  0.46712116  0.93889918    -0.18000
C342        C  0.18177049  0.47872688  0.91889040    -0.20200
C343        C  0.20088872  0.00274040  0.90611566     0.20400
C344        C  0.21964395  0.02645081  0.91976929    -0.03100
C345        C  0.23079863  0.01509614  0.94050184    -0.06200
C346        C  0.21832392  0.48866047  0.95080976     0.20700
C347        C  0.24926189  0.03896944  0.95421942     0.18900
C348        C  0.25655393  0.07380944  0.94704351    -0.17700
C349        C  0.24577403  0.08494241  0.92644938    -0.19900
C350        C  0.22737384  0.06146512  0.91269404     0.20400
C351        C  0.21670683  0.07241448  0.89197166    -0.32900
C352        C  0.19789545  0.04906818  0.87821536     0.01100
C353        C  0.18981651  0.01431801  0.88552405    -0.24200
C354        C  0.23216184  0.47694357  0.97065226    -0.28800
C355        C  0.25552933  0.49873039  0.98249198     0.06700
C356        C  0.26034097  0.02746020  0.97476682    -0.27500
H357        H  0.18679363  0.44120917  0.94500930     0.11500
H358        H  0.16384466  0.46150648  0.90996446     0.12600
H359        H  0.27074870  0.09244167  0.95733651     0.11700
H360        H  0.25185916  0.11194206  0.92126542     0.10900
H361        H  0.22279828  0.09934773  0.88663422     0.16300
H362        H  0.17546035  0.99607590  0.87505236     0.12200
H363        H  0.22500723  0.45082010  0.97690120     0.15100
H364        H  0.27490492  0.04548561  0.98528107     0.14800
C365        C  0.30023903  0.36411805  0.94571175    -0.18000
C366        C  0.31033793  0.35340301  0.92490129    -0.20200
C367        C  0.33136952  0.37579612  0.91194512     0.20400
C368        C  0.34235252  0.40932297  0.92005464    -0.03100
C369        C  0.33198883  0.42023764  0.94100167    -0.06200
C370        C  0.31084854  0.39746756  0.95390423     0.20700
C371        C  0.34248261  0.45404935  0.94893501     0.18900
C372        C  0.36348317  0.47646847  0.93600802    -0.17700
C373        C  0.37403666  0.46549645  0.91534798    -0.19900
C374        C  0.36358424  0.43202628  0.90721919     0.20400
C375        C  0.37402677  0.42087443  0.88649686    -0.32900
C376        C  0.36327633  0.38743420  0.87824744     0.01100
C377        C  0.34169291  0.36517502  0.89107065    -0.24200
C378        C  0.30017052  0.40877694  0.97457308    -0.28800
C379        C  0.30986024  0.44273765  0.98224483     0.06700
C380        C  0.33129473  0.46508405  0.96950234    -0.27500
H381        H  0.28392188  0.34637438  0.95536113     0.11500
H382        H  0.30168879  0.32757396  0.91893299     0.12600
H383        H  0.37168354  0.50252187  0.94185915     0.11700
H384        H  0.39028607  0.48327805  0.90568333     0.10900
H385        H  0.39047423  0.43837872  0.87676261     0.16300
H386        H  0.33336721  0.33930914  0.88496903     0.12200
H387        H  0.28333144  0.39179473  0.98440734     0.15100
H388        H  0.33860365  0.49133778  0.97550886     0.14800
C389        C  0.12645365  0.20697610  0.63003179    -0.18000
C390        C  0.11096093  0.22118043  0.61134107    -0.20200
C391        C  0.09483126  0.19856641  0.59610398     0.20400
C392        C  0.09444068  0.16124967  0.59968309    -0.03100
C393        C  0.10988377  0.14692413  0.61862809    -0.06200
C394        C  0.12593856  0.16994500  0.63385360     0.20700
C395        C  0.10879232  0.10968292  0.62247625     0.18900
C396        C  0.09315690  0.08703921  0.60705051    -0.17700
C397        C  0.07826164  0.10119000  0.58814016    -0.19900
C398        C  0.07848805  0.13824285  0.58439075     0.20400
C399        C  0.06303759  0.15272801  0.56566059    -0.32900
C400        C  0.06309439  0.18990106  0.56209113     0.01100
C401        C  0.07923592  0.21261906  0.57732366    -0.24200
C402        C  0.14042426  0.15564088  0.65287925    -0.28800
C403        C  0.13821996  0.11872458  0.65725192     0.06700
C404        C  0.12264536  0.09585181  0.64187128    -0.27500
H405        H  0.13858123  0.22502425  0.64160940     0.11500
H406        H  0.11150895  0.24986413  0.60882966     0.12600
H407        H  0.09224541  0.05839531  0.60967723     0.11700
H408        H  0.06625458  0.08313544  0.57651877     0.10900
H409        H  0.05082768  0.13514555  0.55383672     0.16300
H410        H  0.08022216  0.24116309  0.57432997     0.12200
H411        H  0.15196137  0.17355317  0.66476920     0.15100
H412        H  0.12090095  0.06741136  0.64514881     0.14800
C413        C  0.42325815  0.23705295  0.62209844    -0.18000
C414        C  0.43940805  0.22221569  0.60375197    -0.20200
C415        C  0.46519513  0.24150560  0.59225939     0.20400
C416        C  0.47456103  0.27623942  0.59927250    -0.03100
C417        C  0.45854406  0.29104686  0.61795495    -0.06200
C418        C  0.43282100  0.27132347  0.62943489     0.20700
C419        C  0.46863026  0.32536024  0.62528798     0.18900
C420        C  0.49402890  0.34487119  0.61361236    -0.17700
C421        C  0.50946028  0.33047369  0.59493461    -0.19900
C422        C  0.50004794  0.29616392  0.58767949     0.20400
C423        C  0.51557080  0.28147532  0.56902174    -0.32900
C424        C  0.00668090  0.24680807  0.56210731     0.01100
C425        C  0.48162508  0.22682802  0.57383277    -0.24200
C426        C  0.41781769  0.28579076  0.64835029    -0.28800
C427        C  0.42874810  0.31944732  0.65633341     0.06700
C428        C  0.45379971  0.33925774  0.64441228    -0.27500
H429        H  0.40355087  0.22150317  0.63071425     0.11500
H430        H  0.43174338  0.19562061  0.59856379     0.12600
H431        H  0.50207990  0.37125004  0.61897968     0.11700
H432        H  0.52899314  0.34612032  0.58623410     0.10900
H433        H  0.53477854  0.29687146  0.55987360     0.16300
H434        H  0.97453940  0.20023449  0.56833098     0.12200
H435        H  0.39868079  0.27006353  0.65732518     0.15100
H436        H  0.46237198  0.36520509  0.65025309     0.14800
C437        C  0.04743495  0.32396729  0.91666739    -0.18000
C438        C  0.03351584  0.30900657  0.93557483    -0.20200
C439        C  0.05435836  0.28644990  0.94850929     0.20400
C440        C  0.08968986  0.27905984  0.94243345    -0.03100
C441        C  0.10364540  0.29393066  0.92322630    -0.06200
C442        C  0.08236475  0.31645195  0.91030460     0.20700
C443        C  0.13866354  0.28588674  0.91681834     0.18900
C444        C  0.15961992  0.26360963  0.92991118    -0.17700
C445        C  0.14593982  0.24921489  0.94909380    -0.19900
C446        C  0.11097733  0.25662484  0.95545322     0.20400
C447        C  0.09681829  0.24193370  0.97451315    -0.32900
C448        C  0.06149789  0.24885551  0.98039740     0.01100
C449        C  0.04044998  0.27110607  0.96737441    -0.24200
C450        C  0.09605219  0.33043362  0.89099153    -0.28800
C451        C  0.13054653  0.32165638  0.88405873     0.06700
C452        C  0.15183677  0.29965625  0.89723805    -0.27500
H453        H  0.03073335  0.34116740  0.90689525     0.11500
H454        H  0.00639424  0.31500307  0.94005281     0.12600
H455        H  0.18656386  0.25717893  0.92526273     0.11700
H456        H  0.16264574  0.23204535  0.95888082     0.10900
H457        H  0.11297231  0.22471364  0.98462842     0.16300
H458        H  0.01329621  0.27658220  0.97207708     0.12200
H459        H  0.07919853  0.34704100  0.88093538     0.15100
H460        H  0.17842896  0.29274020  0.89208688     0.14800
C461        C  0.02181768  0.12941145  0.91165474    -0.18000
C462        C  0.03543212  0.14446425  0.93065735    -0.20200
C463        C  0.01299808  0.16250647  0.94511918     0.20400
C464        C  0.47657673  0.16588337  0.94023513    -0.03100
C465        C  0.46288293  0.15089744  0.92098174    -0.06200
C466        C  0.48558094  0.13230047  0.90674941     0.20700
C467        C  0.42653317  0.15456475  0.91597703     0.18900
C468        C  0.40421994  0.17306597  0.93029878    -0.17700
C469        C  0.41770480  0.18756042  0.94949847    -0.19900
C470        C  0.45377169  0.18403163  0.95464268     0.20400
C471        C  0.46740560  0.19815430  0.97397325    -0.32900
C472        C  0.50357010  0.19471504  0.97898009     0.01100
C473        C  0.02625298  0.17694108  0.96446361    -0.24200
C474        C  0.47173795  0.11725830  0.88774635    -0.28800
C475        C  0.43562922  0.12123376  0.88245134     0.06700
C476        C  0.41319904  0.13996001  0.89666758    -0.27500
H477        H  0.03965288  0.11547301  0.90079018     0.11500
H478        H  0.06346662  0.14180391  0.93410959     0.12600
H479        H  0.37629096  0.17621451  0.92668797     0.11700
H480        H  0.39987950  0.20153472  0.96035003     0.10900
H481        H  0.44996569  0.21196668  0.98514936     0.16300
H482        H  0.05407800  0.17389722  0.96844002     0.12200
H483        H  0.48941559  0.10346214  0.87670940     0.15100
H484        H  0.38542189  0.14329024  0.89264581     0.14800
C485        C  0.28875415  0.06068483  0.62628746    -0.18000
C486        C  0.27759995  0.04854106  0.60596055    -0.20200
C487        C  0.30007712  0.02739118  0.59314705     0.20400
C488        C  0.33402132  0.01811775  0.60095259    -0.03100
C489        C  0.34508264  0.02998197  0.62159132    -0.06200
C490        C  0.32244293  0.05160901  0.63424187     0.20700
C491        C  0.37874645  0.02014907  0.62955964     0.18900
C492        C  0.40142086  0.49588821  0.61943653    -0.17700
C493        C  0.39133197  0.48371078  0.59894081    -0.19900
C494        C  0.35878152  0.49414811  0.58996868     0.20400
C495        C  0.34819650  0.48161706  0.56957150    -0.32900
C496        C  0.31493402  0.49101294  0.56118783     0.01100
C497        C  0.28905310  0.01490772  0.57281333    -0.24200
C498        C  0.33386767  0.06375239  0.65460672    -0.31200
C499        C  0.36743601  0.05409325  0.66269040     0.06700
C500        C  0.38957046  0.03202036  0.65007191    -0.27500
H501        H  0.27096435  0.07711398  0.63582273     0.11500
H502        H  0.25139744  0.05574067  0.60024471     0.12600
H503        H  0.42663946  0.48735285  0.62606122     0.11700
H504        H  0.40892151  0.46597468  0.59015021     0.10900
H505        H  0.36510949  0.46349025  0.56055542     0.16300
H506        H  0.26270723  0.02124195  0.56692628     0.12200
H507        H  0.31647394  0.08049533  0.66422554     0.15100
H508        H  0.41552165  0.02445244  0.65605874     0.14800
C509        C  0.28107426  0.38475001  0.63358572    -0.18000
C510        C  0.29335014  0.39449925  0.61308027    -0.20200
C511        C  0.27029773  0.41018160  0.59799157     0.20400
C512        C  0.23468064  0.41673663  0.60370827    -0.03100
C513        C  0.22235622  0.40714983  0.62449021    -0.06200
C514        C  0.24560197  0.39068238  0.63937636     0.20700
C515        C  0.18677002  0.41371689  0.63028891     0.18900
C516        C  0.16388477  0.42994634  0.61527321    -0.17700
C517        C  0.17605791  0.43928593  0.59462255    -0.19900
C518        C  0.21135719  0.43271679  0.58864546     0.20400
C519        C  0.22391072  0.44217507  0.56800786    -0.32900
C520        C  0.25949783  0.43612757  0.56240123     0.01100
C521        C  0.28234254  0.41961920  0.57734031    -0.24200
C522        C  0.23290110  0.38000151  0.65968639    -0.28800
C523        C  0.19736359  0.38594752  0.66551898     0.06700
C524        C  0.17459029  0.40342796  0.65085710    -0.27500
H525        H  0.29930968  0.37235779  0.64488684     0.11500
H526        H  0.32083785  0.38959282  0.60897658     0.12600
H527        H  0.13648989  0.43519431  0.61944977     0.11700
H528        H  0.15782545  0.45165077  0.58331065     0.10900
H529        H  0.20637094  0.45511880  0.55651085     0.16300
H530        H  0.30970481  0.41466229  0.57292076     0.12200
H531        H  0.25073341  0.36695028  0.67096775     0.15100
H532        H  0.14713983  0.40807504  0.65519582     0.14800
C533        C  0.17742969  0.48629279  0.12421930    -0.18000
C534        C  0.19409506  0.47204836  0.10594920    -0.20200
C535        C  0.21698100  0.49322680  0.09348797     0.20400
C536        C  0.21730349  0.02861043  0.09785002    -0.03100
C537        C  0.20197175  0.04483512  0.11627568    -0.06200
C538        C  0.17023620  0.03108890  0.12504752     0.20700
C539        C  0.21891706  0.07418926  0.12623746     0.18900
C540        C  0.25053695  0.08761067  0.11743446    -0.17700
C541        C  0.26579470  0.07147665  0.09925497    -0.19900
C542        C  0.24963610  0.04173670  0.08950657     0.20400
C543        C  0.26526603  0.02484212  0.07161200    -0.32900
C544        C  0.25622936  0.50044973  0.06253531     0.01100
C545        C  0.23395924  0.47898143  0.07524396    -0.24200
C546        C  0.15658055  0.04570060  0.14429175    -0.28800
C547        C  0.17433436  0.07381446  0.15498187     0.06700
C548        C  0.20479965  0.08871743  0.14531800    -0.27500
H549        H  0.16010064  0.46927626  0.13367977     0.11500
H550        H  0.18918452  0.44438798  0.10161070     0.12600
H551        H  0.26384066  0.11019830  0.12485877     0.11700
H552        H  0.29046761  0.08204205  0.09295282     0.10900
H553        H  0.29002391  0.03485914  0.06507042     0.16300
H554        H  0.22931845  0.45138075  0.07060125     0.12200
H555        H  0.13297364  0.03410468  0.15140661     0.15100
H556        H  0.21873732  0.11046975  0.15321582     0.14800
C557        C  0.04471128  0.11854881  0.44225548    -0.18000
C558        C  0.05532334  0.10737451  0.42163128    -0.20200
C559        C  0.08075289  0.12686859  0.40996985     0.20400
C560        C  0.09591434  0.15777187  0.41925965    -0.03100
C561        C  0.08543899  0.16888660  0.44019197    -0.06200
C562        C  0.05952344  0.14929097  0.45167220     0.20700
C563        C  0.10072188  0.19970536  0.44956006     0.18900
C564        C  0.12605188  0.21926502  0.43786251    -0.17700
C565        C  0.13625653  0.20837257  0.41707877    -0.19900
C566        C  0.12142515  0.17761086  0.40763028     0.20400
C567        C  0.13165681  0.16634156  0.38680022    -0.32900
C568        C  0.11670099  0.13542480  0.37738589     0.01100
C569        C  0.09120126  0.11595599  0.38918831    -0.24200
C570        C  0.04851759  0.16107743  0.47220340    -0.28800
C571        C  0.06339687  0.19192602  0.48147185     0.06700
C572        C  0.09000723  0.21066024  0.47030650    -0.27500
H573        H  0.52483756  0.10316268  0.45082496     0.11500
H574        H  0.04345863  0.08353371  0.41473828     0.12600
H575        H  0.13787270  0.24312925  0.44475490     0.11700
H576        H  0.15579766  0.22401198  0.40839615     0.10900
H577        H  0.15126126  0.18166643  0.37795656     0.16300
H578        H  0.07949526  0.09204487  0.38227709     0.12200
H579        H  0.02792828  0.14674581  0.48083281     0.15100
H580        H  0.10159973  0.23434654  0.47757198     0.14800
C581        C  0.41121168  0.00424978  0.42945410    -0.18000
C582        C  0.39799400  0.98972353  0.44874344    -0.20200
C583        C  0.36247184  0.99504823  0.45471525     0.20400
C584        C  0.34004635  0.01523466  0.44107931    -0.03100
C585        C  0.35353670  0.03035343  0.42179055    -0.06200
C586        C  0.38924011  0.02468595  0.41586804     0.20700
C587        C  0.33121276  0.05104973  0.40841568     0.18900
C588        C  0.29559858  0.05606708  0.41423830    -0.17700
C589        C  0.28215317  0.04080238  0.43319001    -0.19900
C590        C  0.30415874  0.02046962  0.44674538     0.20400
C591        C  0.29096667  0.00560476  0.46595867    -0.32900
C592        C  0.31615667  0.48735966  0.48114138     0.01100
C593        C  0.35137555  0.48114862  0.47481932    -0.24200
C594        C  0.40218957  0.03926597  0.39639533    -0.28800
C595        C  0.38003631  0.06000242  0.38295156     0.06700
C596        C  0.34468376  0.06601987  0.38930229    -0.27500
H597        H  0.43867502  0.99958230  0.42519265     0.11500
H598        H  0.41684952  0.47260078  0.45847666     0.12600
H599        H  0.27806427  0.07174517  0.40407883     0.11700
H600        H  0.25456069  0.04505430  0.43730276     0.10900
H601        H  0.26351589  0.00987299  0.47046145     0.16300
H602        H  0.36824349  0.46438414  0.48478318     0.12200
H603        H  0.42941656  0.03434810  0.39166177     0.15100
H604        H  0.32715157  0.08144061  0.37898949     0.14800
C605        C  0.02486701  0.29960612  0.10797268    -0.18000
C606        C  0.03649971  0.31023754  0.12851182    -0.20200
C607        C  0.07022977  0.30025825  0.13602001     0.20400
C608        C  0.09254625  0.27956182  0.12262807    -0.03100
C609        C  0.08098556  0.26919488  0.10180000    -0.06200
C610        C  0.04688434  0.27907052  0.09451705     0.20700
C611        C  0.10346646  0.24871886  0.08834588     0.18900
C612        C  0.13713477  0.23871995  0.09585010    -0.17700
C613        C  0.14845878  0.24874283  0.11654303    -0.19900
C614        C  0.12636979  0.26909703  0.13005896     0.20400
C615        C  0.13758653  0.27917005  0.15084909    -0.32900
C616        C  0.11567458  0.30003956  0.16429382     0.01100
C617        C  0.08201149  0.31054213  0.15667909    -0.24200
C618        C  0.03530932  0.26788477  0.07401989    -0.28800
C619        C  0.05752973  0.24728197  0.06067862     0.06700
C620        C  0.09169037  0.23819650  0.06776488    -0.27500
H621        H  0.49862376  0.30740280  0.10262646     0.11500
H622        H  0.01901347  0.32611772  0.13858127     0.12600
H623        H  0.15466713  0.22294440  0.08574933     0.11700
H624        H  0.17452629  0.24054939  0.12198678     0.10900
H625        H  0.16364038  0.27113672  0.15642620     0.16300
H626        H  0.06480872  0.32651925  0.16688301     0.12200
H627        H  0.00890013  0.27476769  0.06847195     0.15100
H628        H  0.10858445  0.22199196  0.05748560     0.14800
C629        C  0.52566374  0.12757206  0.12609779    -0.18000
C630        C  0.03661086  0.13962769  0.10576783    -0.20200
C631        C  0.51352556  0.15953879  0.09266811     0.20400
C632        C  0.47905656  0.16753259  0.10008737    -0.03100
C633        C  0.46809426  0.15557172  0.12070450    -0.06200
C634        C  0.49149359  0.13536394  0.13370698     0.20700
C635        C  0.43383765  0.16391680  0.12832051     0.18900
C636        C  0.41077421  0.18392856  0.11518737    -0.17700
C637        C  0.42158072  0.19565008  0.09469191    -0.19900
C638        C  0.45569030  0.18767679  0.08699311     0.20400
C639        C  0.46714223  0.19995589  0.06664407    -0.32900
C640        C  0.50175170  0.19266403  0.05950149     0.01100
C641        C  0.02454029  0.17203674  0.07241826    -0.24200
C642        C  0.48040220  0.12330199  0.15409915    -0.28800
C643        C  0.44635240  0.13153399  0.16188799     0.06700
C644        C  0.42327921  0.15206340  0.14890618    -0.27500
H645        H  0.54398215  0.11220629  0.13590363     0.11500
H646        H  0.06319899  0.13342040  0.10029813     0.12600
H647        H  0.38435277  0.19054785  0.12077794     0.11700
H648        H  0.40331995  0.21112654  0.08491227     0.10900
H649        H  0.44969808  0.21608282  0.05667702     0.16300
H650        H  0.05119834  0.16640824  0.06680048     0.12200
H651        H  0.49846642  0.10777293  0.16400132     0.15100
H652        H  0.39690380  0.15845763  0.15469148     0.14800
C653        C  0.17284469  0.42910126  0.45246964    -0.18000
C654        C  0.15869037  0.41548850  0.43320813    -0.20200
C655        C  0.17992602  0.39556048  0.41897280     0.20400
C656        C  0.21571265  0.38889909  0.42437251    -0.03100
C657        C  0.23013863  0.40303319  0.44368232    -0.06200
C658        C  0.20855652  0.42327251  0.45776879     0.20700
C659        C  0.26618215  0.39717525  0.44878856     0.18900
C660        C  0.28726075  0.37665467  0.43478289    -0.17700
C661        C  0.27287524  0.36236363  0.41576376    -0.19900
C662        C  0.23722651  0.36855131  0.41034639     0.20400
C663        C  0.22294301  0.35537139  0.39093934    -0.32900
C664        C  0.18758404  0.36286280  0.38503565     0.01100
C665        C  0.16617593  0.38274497  0.39928182    -0.24200
C666        C  0.22310904  0.43747992  0.47682774    -0.28800
C667        C  0.25905693  0.43222537  0.48179851     0.06700
C668        C  0.28046977  0.41201179  0.46776675    -0.27500
H669        H  0.15591105  0.44450884  0.46313864     0.11500
H670        H  0.13114594  0.42073268  0.42938225     0.12600
H671        H  0.31491678  0.37176917  0.43849529     0.11700
H672        H  0.28976019  0.34677513  0.40516112     0.10900
H673        H  0.23986806  0.34035813  0.38005163     0.16300
H674        H  0.13892946  0.38855105  0.39494659     0.12200
H675        H  0.20666381  0.45306393  0.48770872     0.15100
H676        H  0.30812545  0.40765706  0.47177024     0.14800
C677        C  0.31499849  0.35328523  0.09161452    -0.18000
C678        C  0.32942732  0.33899873  0.11064534    -0.20200
C679        C  0.34917102  0.36066026  0.12479144     0.20400
C680        C  0.35454919  0.39706882  0.11960376    -0.03100
C681        C  0.33952667  0.41162190  0.10058298    -0.06200
C682        C  0.31973633  0.38958750  0.08648527     0.20700
C683        C  0.34427088  0.44824378  0.09571714     0.18900
C684        C  0.36430434  0.46983210  0.10970352    -0.17700
C685        C  0.37947379  0.45534622  0.12840080    -0.19900
C686        C  0.37466717  0.41906772  0.13351341     0.20400
C687        C  0.38915384  0.40463013  0.15249163    -0.32900
C688        C  0.38317291  0.36862349  0.15815936     0.01100
C689        C  0.36321842  0.34674650  0.14414856    -0.24200
C690        C  0.30509865  0.40428236  0.06754027    -0.28800
C691        C  0.30949452  0.44082216  0.06275501     0.06700
C692        C  0.32905393  0.46261274  0.07691706    -0.27500
H693        H  0.29991473  0.33597199  0.08097038     0.11500
H694        H  0.32509463  0.31098390  0.11431447     0.12600
H695        H  0.36825714  0.49795811  0.10617657     0.11700
H696        H  0.39478092  0.47260730  0.13895852     0.10900
H697        H  0.40404517  0.42191411  0.16326853     0.16300
H698        H  0.35845214  0.31900639  0.14837651     0.12200
H699        H  0.29009929  0.38745584  0.05655152     0.15100
H700        H  0.33289465  0.49065353  0.07304936     0.14800
C701        C  0.41831590  0.24593472  0.42572721    -0.18000
C702        C  0.43000993  0.23596698  0.44636623    -0.20200
C703        C  0.46321092  0.24727828  0.45400508     0.20400
C704        C  0.48480511  0.26900155  0.44075143    -0.03100
C705        C  0.47311553  0.27882916  0.41987698    -0.06200
C706        C  0.43971149  0.26723639  0.41232659     0.20700
C707        C  0.49490456  0.30019383  0.40656839     0.18900
C708        C  0.02815126  0.31146943  0.41418267    -0.17700
C709        C  0.03966714  0.30188417  0.43489509    -0.19900
C710        C  0.01819461  0.28073582  0.44829279     0.20400
C711        C  0.02976111  0.27059300  0.46894884    -0.32900
C712        C  0.00896543  0.24790463  0.48181652     0.01100
C713        C  0.47552134  0.23675872  0.47447449    -0.24200
C714        C  0.42826304  0.27723421  0.39155423    -0.28800
C715        C  0.44970330  0.29887013  0.37825304     0.06700
C716        C  0.48306261  0.31006429  0.38590992    -0.27500
H717        H  0.39257489  0.23685448  0.42020835     0.11500
H718        H  0.41311498  0.21930076  0.45633489     0.12600
H719        H  0.04523998  0.32778316  0.40412282     0.11700
H720        H  0.06545752  0.31086321  0.44039646     0.10900
H721        H  0.05533493  0.27952624  0.47484380     0.16300
H722        H  0.45959510  0.21920458  0.48450297     0.12200
H723        H  0.40245629  0.26856350  0.38588562     0.15100
H724        H  0.49992577  0.32651999  0.37578275     0.14800
C725        C  0.43986591  0.80890888  0.35493941     0.80000
N726        N  0.45538435  0.83722791  0.34479245    -0.78300
C727        C  0.44342890  0.84834709  0.32514432     0.82500
N728        N  0.41568688  0.83129587  0.31570155    -0.78200
C729        C  0.40022822  0.80298212  0.32563477     0.82600
N730        N  0.41236509  0.79187919  0.34516022    -0.80000
C731        C  0.39588817  0.85052479  0.17846372     0.80000
N732        N  0.42286784  0.86879625  0.18819755    -0.78300
C733        C  0.43186640  0.86178141  0.20907440     0.82500
N734        N  0.41337658  0.83691055  0.22035565    -0.78200
C735        C  0.38750920  0.81751150  0.21062887     0.82600
N736        N  0.37848521  0.82468634  0.18980208    -0.80000
C737        C  0.17292884  0.85212896  0.36209877     0.80000
N738        N  0.19077663  0.82659894  0.35083337    -0.78300
C739        C  0.18379143  0.82078410  0.32960755     0.82500
N740        N  0.15914947  0.84106794  0.31935638    -0.78200
C741        C  0.13994510  0.86560545  0.33056055     0.82600
N742        N  0.14704481  0.87132308  0.35191291    -0.80000
C743        C  0.43384742  0.61505658  0.18371589     0.80000
N744        N  0.45139201  0.58839947  0.19414433    -0.78300
C745        C  0.44063452  0.57719810  0.21400685     0.82500
N746        N  0.41220538  0.59287641  0.22363512    -0.78200
C747        C  0.39486842  0.61992455  0.21346575     0.82600
N748        N  0.40571531  0.63079326  0.19357314    -0.80000
C749        C  0.45960680  0.87920961  0.31428103     0.42300
N750        N  0.99286579  0.92426509  0.30770848     0.01100
C751        C  0.99231005  0.53110957  0.21749876    -0.06700
H752        H  0.00333870  0.89835565  0.19822415     0.06600
C753        C  0.12294127  0.90120630  0.24462629    -0.07100
Co754      Co  0.46942932  0.96409573  0.26784911     0.74200
N755        N  0.99690895  0.92676862  0.22851064    -0.26300
Co756      Co  0.03667302  0.96572392  0.22974920     0.74100
C757        C  0.11130928  0.88367351  0.22478499     0.42400
N758        N  0.09729605  0.92804335  0.29586559     0.00800
N759        N  0.07633361  0.92715203  0.23160510     0.00900
N760        N  0.44871495  0.53078081  0.24274333    -0.47100
H761        H  0.42510058  0.88994506  0.28422832     0.06600
N762        N  0.47214700  0.92562853  0.24356241     0.01100
N763        N  0.07710022  0.50350090  0.23315423     0.00900
C764        C  0.11493404  0.54398569  0.22474565     0.42500
N765        N  0.07237383  0.92781132  0.31084295    -0.25700
C766        C  0.44401523  0.52887187  0.29781078    -0.06600
N767        N  0.98774995  0.89785295  0.32168100    -0.46800
N768        N  0.08569687  0.52662097  0.21771119    -0.47000
C769        C  0.45265290  0.54367564  0.31889051     0.42300
N770        N  0.47219257  0.50503282  0.24628901     0.01100
N771        N  0.07004850  0.50411337  0.31243757    -0.25700
N772        N  0.46951624  0.92424979  0.29173102    -0.26200
N773        N  0.09560404  0.50460151  0.29779931     0.00800
H774        H  0.05888978  0.53695294  0.34037426     0.06700
H775        H  0.14756002  0.53386807  0.25557274     0.06700
N776        N  0.99782426  0.50470278  0.23172929    -0.26300
N777        N  0.09970450  0.92785716  0.24756507    -0.25900
N778        N  0.99062466  0.50308758  0.31096968     0.01100
C779        C  0.45642705  0.88530136  0.22080183     0.42500
C780        C  0.08145955  0.90401343  0.32621845    -0.07100
N781        N  0.09978026  0.50378968  0.24942570    -0.25900
H782        H  0.14544913  0.89530923  0.25487469     0.06700
N783        N  0.44750392  0.90134261  0.23954176    -0.47100
H784        H  0.06719180  0.89918891  0.34110999     0.06700
C785        C  0.10719547  0.54864310  0.31877520     0.42400
C786        C  0.44739668  0.89655321  0.29449359    -0.06600
Co787      Co  0.03071957  0.96473157  0.30984801     0.73800
N788        N  0.12324053  0.90517037  0.30001669    -0.46800
C789        C  0.45988820  0.54830923  0.22490070     0.42600
N790        N  0.98147405  0.52607825  0.32640636    -0.46800
Co791      Co  0.09804032  0.96704326  0.27172668     0.73900
C792        C  0.12437490  0.52891195  0.24570665    -0.07200
C793        C  0.98896020  0.90246791  0.21315758    -0.06700
N794        N  0.46847607  0.50365913  0.29444152    -0.26200
N795        N  0.08239754  0.90114153  0.21750570    -0.47000
H796        H  0.00837129  0.53673860  0.20341108     0.06600
C797        C  0.07520651  0.53096916  0.32644821    -0.07100
Cl798      Cl  0.03372172  0.96534814  0.26979331    -0.50100
C799        C  0.11500393  0.88876494  0.31877955     0.42400
H800        H  0.42113468  0.53382311  0.28768329     0.06600
N801        N  0.11851754  0.53096103  0.30101684    -0.46800
C802        C  0.13160383  0.81237514  0.18498828     0.80000
N803        N  0.11553398  0.84051915  0.19496719    -0.78300
C804        C  0.12823230  0.85326642  0.21402633     0.82500
N805        N  0.15699274  0.83781710  0.22320089    -0.78200
C806        C  0.17313565  0.80966254  0.21355027     0.82600
N807        N  0.16052404  0.79699387  0.19440270    -0.80000
C808        C  0.39336349  0.57510822  0.36273552     0.80000
N809        N  0.37449864  0.60060763  0.35190927    -0.78300
C810        C  0.38240700  0.60866795  0.33103126     0.82500
N811        N  0.40858406  0.59059639  0.32082020    -0.78200
C812        C  0.42832630  0.56602541  0.33150307     0.82600
N813        N  0.42049521  0.55800862  0.35241910    -0.80000
C814        C  0.13153433  0.61954416  0.35786923     0.80000
N815        N  0.15842990  0.63616856  0.34709536    -0.78300
C816        C  0.16887592  0.62411083  0.32728668     0.82500
N817        N  0.15230319  0.59556133  0.31824049    -0.78200
C818        C  0.12524971  0.57920532  0.32870918     0.82600
N819        N  0.11505311  0.59114208  0.34848270    -0.80000
C820        C  0.16583590  0.58181041  0.17871054     0.80000
N821        N  0.18439664  0.60809234  0.18896022    -0.78300
C822        C  0.17982748  0.61396700  0.21046936     0.82500
N823        N  0.15706789  0.59315945  0.22185136    -0.78200
C824        C  0.13732728  0.56789478  0.21173449     0.82600
N825        N  0.14204134  0.56197688  0.19022330    -0.80000
C826        C  0.36537706  0.79384425  0.22381337     0.42300
N827        N  0.32372009  0.75705763  0.23164709     0.01100
C828        C  0.22154281  0.76247946  0.32522216    -0.06700
H829        H  0.35674089  0.73715806  0.33758038     0.06600
C830        C  0.34446679  0.62258362  0.29717026    -0.07100
Co831      Co  0.28558409  0.77990417  0.27167116     0.74200
N832        N  0.32321893  0.75037872  0.31039510    -0.26300
Co833      Co  0.28307081  0.71240477  0.31024482     0.74100
C834        C  0.35921414  0.63186054  0.31818483     0.42400
N835        N  0.32195388  0.65125242  0.24500455     0.00800
N836        N  0.31988990  0.67064917  0.30963874     0.00900
N837        N  0.22293899  0.80465992  0.29901649    -0.47100
H838        H  0.35537605  0.82714571  0.25444126     0.06600
N839        N  0.32428094  0.77613631  0.29577288     0.01100
N840        N  0.24300489  0.67435149  0.30858453     0.00900
C841        C  0.19853088  0.64093397  0.31574230     0.42500
N842        N  0.32224059  0.67710461  0.23041105    -0.25700
C843        C  0.22094599  0.80516966  0.24403001    -0.06600
N844        N  0.34728429  0.76505770  0.21645990    -0.46800
N845        N  0.21713110  0.66947358  0.32278975    -0.47000
C846        C  0.20384896  0.79321746  0.22412855     0.42300
N847        N  0.24659307  0.77914640  0.29544428     0.01100
N848        N  0.24566314  0.67784570  0.22948362    -0.25700
N849        N  0.32431113  0.77996158  0.24788918    -0.26200
N850        N  0.24428816  0.65294731  0.24460226     0.00800
H851        H  0.21694462  0.68511618  0.19950190     0.06700
H852        H  0.20879802  0.60537359  0.28592546     0.06700
N853        N  0.24629572  0.75410129  0.31048570    -0.26300
N854        N  0.32004242  0.64775350  0.29337062    -0.25900
N855        N  0.24662021  0.75779942  0.23148814     0.01100
C856        C  0.36952017  0.78545647  0.31583396     0.42500
C857        C  0.34854743  0.67121415  0.21638010    -0.07100
N858        N  0.24278978  0.65047366  0.29279718    -0.25900
H859        H  0.34917694  0.59914684  0.28729863     0.06700
N860        N  0.35167097  0.79785953  0.29847101    -0.47100
H861        H  0.35476770  0.68755044  0.20244416     0.06700
C862        C  0.20355696  0.63810706  0.22220273     0.42400
C863        C  0.35012863  0.80384750  0.24454532    -0.06600
Co864      Co  0.28454906  0.71748360  0.23031587     0.73800
N865        N  0.34740336  0.62731228  0.24169054    -0.46800
C866        C  0.20573517  0.79565571  0.31732997     0.42600
N867        N  0.22110245  0.76377567  0.21717795    -0.46800
Co868      Co  0.28231332  0.64991616  0.26889683     0.73900
C869        C  0.21539651  0.62820706  0.29591218    -0.07200
C870        C  0.35076790  0.75413392  0.32388174    -0.06700
N871        N  0.24716075  0.78161798  0.24729713    -0.26200
N872        N  0.34242441  0.66159811  0.32522225    -0.47000
H873        H  0.21618434  0.74785943  0.33996404     0.06600
C874        C  0.22110004  0.67044148  0.21437212    -0.07100
Cl875      Cl  0.28385888  0.71488516  0.27027465    -0.50100
C876        C  0.36512847  0.63839279  0.22389471     0.42400
H877        H  0.21499707  0.82804440  0.25412893     0.06600
N878        N  0.21957565  0.62865198  0.24082020    -0.46800
C879        C  0.29924219  0.97213103  0.50057260     0.02100
C880        C  0.27090034  0.94727799  0.50132327     0.02000
C881        C  0.25656263  0.93742674  0.52145731    -0.18500
C882        C  0.27008105  0.95166590  0.54078207     0.02100
C883        C  0.29804422  0.97673815  0.54002817     0.02000
C884        C  0.31268815  0.98635308  0.51998903    -0.18500
H885        H  0.33749096  0.50469897  0.52097149     0.04100
H886        H  0.23524725  0.91799214  0.52211522     0.04100
C887        C  0.01567881  0.70632441  0.03991543     0.02100
C888        C  0.04374969  0.73129086  0.04024154     0.02000
C889        C  0.05832749  0.74336166  0.02068449    -0.18500
C890        C  0.04485987  0.73155192  0.00072333     0.02100
C891        C  0.01601835  0.70727505  0.00035446     0.02000
C892        C  0.50168581  0.69505037  0.02001796    -0.18500
H893        H  0.48029541  0.67566893  0.01983218     0.04100
H894        H  0.07985831  0.76258162  0.02099809     0.04100
C895        C  0.04490516  0.70334828  0.50254429     0.02100
C896        C  0.01969348  0.73131605  0.50188817     0.02000
C897        C  0.00613441  0.74550638  0.52122045    -0.18500
C898        C  0.01681310  0.73190153  0.54136636     0.02100
C899        C  0.04155376  0.70349320  0.54205296     0.02000
C900        C  0.05518592  0.68936745  0.52266307    -0.18500
H901        H  0.07471877  0.66809879  0.52327823     0.04100
H902        H  0.48668422  0.76685123  0.52056208     0.04100
C903        C  0.29257374  0.95439439  0.04295677     0.02100
C904        C  0.26451423  0.97949551  0.04208959     0.02000
C905        C  0.25242469  0.99178601  0.02191606    -0.18500
C906        C  0.26770036  0.97952633  0.00260499     0.02100
C907        C  0.29598474  0.95483560  0.00341812     0.02000
C908        C  0.30802658  0.94235980  0.02354411    -0.18500
H909        H  0.32960659  0.92321038  0.02410691     0.04100
H910        H  0.24116117  0.52192321  0.02251602     0.04100
C911        C  0.37649160  0.87686398  0.85659076     0.80000
N912        N  0.40380351  0.89376516  0.84650818    -0.78300
C913        C  0.41574322  0.88203883  0.82702214     0.82500
N914        N  0.40023803  0.85335594  0.81748397    -0.78200
C915        C  0.37272062  0.83646367  0.82722636     0.82600
N916        N  0.36101847  0.84812273  0.84681403    -0.80000
C917        C  0.41815927  0.60485833  0.86305931     0.80000
N918        N  0.39195737  0.62348109  0.85282639    -0.78300
C919        C  0.38493224  0.61727253  0.83155989     0.82500
N920        N  0.40450127  0.59302846  0.82050288    -0.78200
C921        C  0.42967378  0.57349556  0.83064069     0.82600
N922        N  0.43677938  0.57971492  0.85183173    -0.80000
C923        C  0.18104928  0.56726146  0.85894493     0.80000
N924        N  0.15397313  0.55082181  0.84819598    -0.78300
C925        C  0.14437421  0.56208798  0.82804928     0.82500
N926        N  0.16196366  0.58976250  0.81868148    -0.78200
C927        C  0.18925455  0.60589652  0.82915036     0.82600
N928        N  0.19859349  0.59462181  0.84919174    -0.80000
C929        C  0.14406231  0.83342829  0.86380798     0.80000
N930        N  0.12452771  0.85786134  0.85257174    -0.78300
C931        C  0.13067929  0.86372110  0.83120361     0.82500
N932        N  0.15620708  0.84471222  0.82090615    -0.78200
C933        C  0.17694747  0.82150057  0.83210300     0.82600
N934        N  0.17061772  0.81563258  0.85345781    -0.80000
C935        C  0.14392155  0.60793329  0.67981076     0.80000
N936        N  0.16905120  0.62655075  0.69104942    -0.78300
C937        C  0.17591472  0.61845652  0.71211461     0.82500
N938        N  0.15699339  0.59239254  0.72206365    -0.78200
C939        C  0.13294071  0.57282498  0.71086797     0.82600
N940        N  0.12626219  0.58082611  0.68985076    -0.80000
C941        C  0.37807797  0.56671701  0.68541164     0.80000
N942        N  0.40627552  0.55120328  0.69523490    -0.78300
C943        C  0.41761887  0.56255774  0.71486342     0.82500
N944        N  0.40069747  0.58997887  0.72491724    -0.78200
C945        C  0.37212476  0.60553613  0.71535514     0.82600
N946        N  0.36085892  0.59382723  0.69564978    -0.80000
C947        C  0.35649554  0.80523060  0.81670487     0.42300
N948        N  0.32292564  0.76022253  0.81040815     0.01100
C949        C  0.32159368  0.65286721  0.71847858    -0.06700
H950        H  0.31147613  0.78582948  0.70108582     0.06600
C951        C  0.19337050  0.78552746  0.74697940    -0.07100
Co952      Co  0.34553173  0.71996642  0.77055131     0.74200
N953        N  0.31839606  0.75747329  0.73128726    -0.26300
Co954      Co  0.27812102  0.71929611  0.73244557     0.74100
C955        C  0.20543249  0.80265661  0.72710751     0.42400
N956        N  0.21875474  0.75835290  0.79808359     0.00800
N957        N  0.23948609  0.75862686  0.73414086     0.00900
N958        N  0.36560985  0.65343302  0.74347493    -0.47100
H959        H  0.39066804  0.79388548  0.78661598     0.06600
N960        N  0.34341729  0.75839638  0.74619603     0.01100
N961        N  0.23781035  0.68099944  0.73365233     0.00900
C962        C  0.19948834  0.64100938  0.72521739     0.42500
N963        N  0.24353736  0.75829906  0.81315679    -0.25700
C964        C  0.37105195  0.65627053  0.79826626    -0.06600
N965        N  0.32824485  0.78688360  0.82421663    -0.46800
N966        N  0.22865389  0.65833069  0.71806358    -0.47000
C967        C  0.36188885  0.64119198  0.81919049     0.42300
N968        N  0.34275851  0.67988250  0.74672750     0.01100
N969        N  0.24536767  0.68067256  0.81295124    -0.25700
N970        N  0.34619094  0.75986704  0.79440714    -0.26200
N971        N  0.21991003  0.68004266  0.79824129     0.00800
H972        H  0.25631220  0.64777149  0.84092264     0.06700
H973        H  0.16752120  0.65089455  0.75627455     0.06700
N974        N  0.31689805  0.68003253  0.73229268    -0.26300
N975        N  0.21607254  0.75846349  0.75003544    -0.25900
N976        N  0.32466099  0.68236849  0.81139752     0.01100
C977        C  0.35897150  0.79842552  0.72325190     0.42500
C978        C  0.23510517  0.78293539  0.82816417    -0.07100
N979        N  0.21545501  0.68055164  0.75005520    -0.25900
H980        H  0.17085479  0.79185703  0.75711215     0.06700
N981        N  0.36827724  0.78238189  0.74195070    -0.47100
H982        H  0.24941095  0.78789971  0.84304176     0.06700
C983        C  0.20819414  0.63585820  0.81907586     0.42400
C984        C  0.36849987  0.78746816  0.79700488    -0.06600
Co985      Co  0.28420802  0.72043550  0.81248273     0.73800
N986        N  0.19353085  0.78213534  0.80180242    -0.46800
C987        C  0.35373580  0.63531624  0.72596645     0.42600
N988        N  0.33322708  0.65894822  0.82669106    -0.46800
Co989      Co  0.21697357  0.71929180  0.77416980     0.73900
C990        C  0.19068111  0.65563932  0.74637103    -0.07200
C991        C  0.32616743  0.78162799  0.71590473    -0.06700
N992        N  0.34693182  0.68183809  0.79493711    -0.26200
N993        N  0.23399315  0.78457579  0.71993675    -0.47000
H994        H  0.30494734  0.64670885  0.70471227     0.06600
C995        C  0.24012729  0.65371811  0.82692132    -0.07100
Cl996      Cl  0.28122432  0.71973718  0.77242617    -0.50100
C997        C  0.20217594  0.79899974  0.82031676     0.42400
H998        H  0.39376828  0.65088536  0.78809863     0.06600
N999        N  0.19705132  0.65361723  0.80133530    -0.46800
C1000       C  0.41678342  0.83155947  0.67917951     0.80000
N1001       N  0.43492671  0.85793901  0.68973690    -0.78300
C1002       C  0.42747732  0.86563122  0.71078777     0.82500
N1003       N  0.40240814  0.84643205  0.72137161    -0.78200
C1004       C  0.38329631  0.82113666  0.71088072     0.82600
N1005       N  0.39075524  0.81349725  0.68988863    -0.80000
C1006       C  0.18413181  0.87195454  0.68617551     0.80000
N1007       N  0.15478984  0.88689119  0.69527038    -0.78300
C1008       C  0.14235602  0.87465499  0.71450189     0.82500
N1009       N  0.15907629  0.84739777  0.72463233    -0.78200
C1010       C  0.18829790  0.83236705  0.71582956     0.82600
N1011       N  0.20088234  0.84462990  0.69661143    -0.80000
C1012       C  0.45046533  0.88940569  0.72347880     0.42300
N1013       N  0.49163375  0.92677520  0.73136774     0.01100
C1014       C  0.09244313  0.92177048  0.82609021    -0.06700
H1015       H  0.45960992  0.94802443  0.83804563     0.06600
C1016       C  0.46826740  0.56075265  0.79691477    -0.07100
Co1017     Co  0.02941933  0.90440768  0.77184680     0.74200
N1018       N  0.49202689  0.93460534  0.81042713    -0.26300
Co1019     Co  0.03232268  0.97230362  0.80990986     0.74100
C1020       C  0.45303550  0.55080167  0.81768224     0.42400
N1021       N  0.49217012  0.53280634  0.74524892     0.00800
N1022       N  0.49385793  0.51342802  0.80960972     0.00900
N1023       N  0.09125042  0.87895588  0.80020455    -0.47100
H1024       H  0.46000079  0.85708009  0.75451224     0.06600
N1025       N  0.49062686  0.90860811  0.79596204     0.01100
N1026       N  0.07089417  0.51080205  0.80895340     0.00900
C1027       C  0.11473693  0.54508051  0.81642724     0.42500
N1028       N  0.49196960  0.50699493  0.73061048    -0.25700
C1029       C  0.09412444  0.87901557  0.74453116    -0.06600
N1030       N  0.46844131  0.91818352  0.71601913    -0.46800
N1031       N  0.09643858  0.51623944  0.82334760    -0.47000
C1032       C  0.11128405  0.89071962  0.72464950     0.42300
N1033       N  0.06834622  0.90494680  0.79595256     0.01100
N1034       N  0.06863443  0.50716133  0.72978542    -0.25700
N1035       N  0.49086464  0.90428046  0.74782343    -0.26200
N1036       N  0.06977087  0.53195339  0.74499660     0.00800
H1037       H  0.09707219  0.50094283  0.69962190     0.06700
H1038       H  0.10434943  0.58030802  0.78649496     0.06700
N1039       N  0.06863541  0.93034386  0.81079578    -0.26300
N1040       N  0.49357598  0.53636048  0.79338964    -0.25900
N1041       N  0.06848404  0.92610500  0.73158945     0.01100
C1042       C  0.44614737  0.89940705  0.81670840     0.42500
C1043       C  0.46503504  0.51232101  0.71694251    -0.07100
N1044       N  0.07098897  0.53463810  0.79316259    -0.25900
H1045       H  0.46303135  0.58398465  0.78697500     0.06700
N1046       N  0.46346329  0.88675804  0.79917027    -0.47100
H1047       H  0.45847912  0.49573934  0.70315317     0.06700
C1048       C  0.11006261  0.54781570  0.72258009     0.42400
C1049       C  0.46526538  0.88017475  0.74446677    -0.06600
Co1050     Co  0.03078780  0.96643204  0.72996214     0.73800
N1051       N  0.46608892  0.55614371  0.74235848    -0.46800
C1052       C  0.10771394  0.88799787  0.81883441     0.42600
N1053       N  0.09411322  0.91998047  0.71743338    -0.46800
Co1054     Co  0.03162206  0.53461034  0.76913866     0.73900
C1055       C  0.09799853  0.55737859  0.79644149    -0.07200
C1056       C  0.46500894  0.93096731  0.82428985    -0.06700
N1057       N  0.06785916  0.90253880  0.74754692    -0.26200
N1058       N  0.47051341  0.52162083  0.82486918    -0.47000
H1059       H  0.09733510  0.93658095  0.84083610     0.06600
C1060       C  0.09291985  0.51525074  0.71462840    -0.07100
Cl1061     Cl  0.03158324  0.96935776  0.76995823    -0.50100
C1062       C  0.44798999  0.54468984  0.72482092     0.42400
H1063       H  0.10008983  0.85636938  0.75480375     0.06600
N1064       N  0.09401513  0.55673092  0.74126268    -0.46800
C1065       C  0.20518897  0.95641080  0.93371005    -0.18000
C1066       C  0.19377158  0.96780767  0.91327294    -0.20200
C1067       C  0.19214660  0.51192263  0.91034714     0.20400
C1068       C  0.21549102  0.53391276  0.92231869    -0.03100
C1069       C  0.22840496  0.52239383  0.94261613    -0.06200
C1070       C  0.22363527  0.97985672  0.94744854     0.20700
C1071       C  0.25177230  0.54444341  0.95456043     0.18900
C1072       C  0.26189788  0.57775014  0.94613882    -0.17700
C1073       C  0.24936376  0.58900021  0.92595324    -0.19900
C1074       C  0.22634536  0.56719262  0.91388932     0.20400
C1075       C  0.21447650  0.57791764  0.89339998    -0.32900
C1076       C  0.19169556  0.55596460  0.88109597     0.01100
C1077       C  0.18015282  0.52322211  0.88989719    -0.24200
C1078       C  0.23520994  0.96865509  0.96794720    -0.28800
C1079       C  0.25360487  0.99231766  0.98160951     0.06700
C1080       C  0.26492462  0.53257014  0.97455677    -0.27500
H1081       H  0.19954022  0.92926165  0.93878674     0.11500
H1082       H  0.17950245  0.94919681  0.90300672     0.12600
H1083       H  0.27980729  0.59498035  0.95507688     0.11700
H1084       H  0.25787362  0.61467967  0.91970156     0.10900
H1085       H  0.22327505  0.60340012  0.88698531     0.16300
H1086       H  0.16258283  0.50610478  0.88063254     0.12200
H1087       H  0.23021766  0.94148896  0.97328265     0.15100
H1088       H  0.28314082  0.54915894  0.98372710     0.14800
C1089       C  0.30521501  0.86286279  0.94666962    -0.18000
C1090       C  0.31487599  0.85269448  0.92570227    -0.20200
C1091       C  0.33459619  0.87592657  0.91254063     0.20400
C1092       C  0.34471741  0.90976766  0.92058708    -0.03100
C1093       C  0.33469312  0.92017854  0.94170807    -0.06200
C1094       C  0.31489395  0.89652125  0.95480820     0.20700
C1095       C  0.34402905  0.95437490  0.94959121     0.18900
C1096       C  0.36373998  0.97762214  0.93641649    -0.17700
C1097       C  0.37412309  0.96708538  0.91560380    -0.19900
C1098       C  0.36468483  0.93325848  0.90751143     0.20400
C1099       C  0.37483770  0.92248057  0.88660837    -0.32900
C1100       C  0.36483703  0.88870090  0.87844140     0.01100
C1101       C  0.34444480  0.86576621  0.89152146    -0.24200
C1102       C  0.30432380  0.90729841  0.97558003    -0.28800
C1103       C  0.31254921  0.94166866  0.98319902     0.06700
C1104       C  0.33276086  0.96496790  0.97029056    -0.27500
H1105       H  0.28988445  0.84446661  0.95647388     0.11500
H1106       H  0.30691556  0.82661666  0.91977216     0.12600
H1107       H  0.37105784  0.00398608  0.94218989     0.11700
H1108       H  0.38938152  0.98551065  0.90577864     0.10900
H1109       H  0.39040215  0.94049514  0.87667432     0.16300
H1110       H  0.33674471  0.83964291  0.88551344     0.12200
H1111       H  0.28824810  0.88965159  0.98546586     0.15100
H1112       H  0.33872285  0.99163938  0.97616546     0.14800
C1113       C  0.14004605  0.70011150  0.62209427    -0.18000
C1114       C  0.12447017  0.71422621  0.60338345    -0.20200
C1115       C  0.09753806  0.69541450  0.59258922     0.20400
C1116       C  0.08620667  0.66200867  0.60069712    -0.03100
C1117       C  0.10192262  0.64779200  0.61959780    -0.06200
C1118       C  0.12894431  0.66696487  0.63036932     0.20700
C1119       C  0.09040026  0.61456258  0.62779016     0.18900
C1120       C  0.06342014  0.59575289  0.61700411    -0.17700
C1121       C  0.04799110  0.60971783  0.59821910    -0.19900
C1122       C  0.05920458  0.64276044  0.58990939     0.20400
C1123       C  0.04421013  0.65676509  0.57091059    -0.32900
C1124       C  0.05563805  0.68984933  0.56277046     0.01100
C1125       C  0.08199368  0.70922732  0.57372267    -0.24200
C1126       C  0.14384443  0.65302850  0.64945350    -0.28800
C1127       C  0.13186534  0.62028413  0.65809162     0.06700
C1128       C  0.10550311  0.60099749  0.64685596    -0.27500
H1129       H  0.16070182  0.71524684  0.63016553     0.11500
H1130       H  0.13350105  0.73986060  0.59734690     0.12600
H1131       H  0.05418300  0.57025338  0.62313410     0.11700
H1132       H  0.02725817  0.59463785  0.59017988     0.10900
H1133       H  0.02385578  0.64193185  0.56233390     0.16300
H1134       H  0.09079173  0.73468828  0.56726007     0.12200
H1135       H  0.16395710  0.66831768  0.65792742     0.15100
H1136       H  0.09597426  0.57576088  0.65322764     0.14800
C1137       C  0.42202191  0.73655254  0.62335870    -0.18000
C1138       C  0.43683052  0.72207482  0.60451797    -0.20200
C1139       C  0.46153535  0.74171765  0.59239269     0.20400
C1140       C  0.47121398  0.77643291  0.59926619    -0.03100
C1141       C  0.45652424  0.79090359  0.61844106    -0.06200
C1142       C  0.43181591  0.77083804  0.63051699     0.20700
C1143       C  0.46688395  0.82520834  0.62564876     0.18900
C1144       C  0.49133143  0.84499296  0.61338396    -0.17700
C1145       C  0.50549347  0.83089092  0.59423428    -0.19900
C1146       C  0.49577910  0.79659107  0.58708464     0.20400
C1147       C  0.51032788  0.78197635  0.56808310    -0.32900
C1148       C  0.00120531  0.74721394  0.56138751     0.01100
C1149       C  0.47681285  0.72723563  0.57358128    -0.24200
C1150       C  0.41784017  0.78505952  0.64975254    -0.28800
C1151       C  0.42869555  0.81887227  0.65746901     0.06700
C1152       C  0.45308318  0.83888342  0.64513924    -0.27500
H1153       H  0.40311600  0.72074688  0.63246179     0.11500
H1154       H  0.42902129  0.69545391  0.59945910     0.12600
H1155       H  0.49959005  0.87136972  0.61863701     0.11700
H1156       H  0.52432527  0.84673460  0.58509875     0.10900
H1157       H  0.52912214  0.79735849  0.55861423     0.16300
H1158       H  0.96958865  0.70053869  0.56827837     0.12200
H1159       H  0.39934694  0.76911571  0.65908534     0.15100
H1160       H  0.46170938  0.86490036  0.65083579     0.14800
C1161       C  0.05402750  0.83305730  0.92178553    -0.18000
C1162       C  0.03909367  0.81739148  0.94019898    -0.20200
C1163       C  0.05677452  0.78967654  0.95106147     0.20400
C1164       C  0.08998971  0.77775263  0.94336183    -0.03100
C1165       C  0.10487955  0.79331656  0.92459608    -0.06200
C1166       C  0.08674060  0.82105340  0.91376953     0.20700
C1167       C  0.13756401  0.78076091  0.91649263     0.18900
C1168       C  0.15541337  0.75323120  0.92750319    -0.17700
C1169       C  0.14094278  0.73818835  0.94629762    -0.19900
C1170       C  0.10819945  0.75014869  0.95432062     0.20400
C1171       C  0.09330093  0.73508625  0.97307661    -0.32900
C1172       C  0.06008422  0.74667377  0.98061824     0.01100
C1173       C  0.04188280  0.77378474  0.96951692    -0.24200
C1174       C  0.10099197  0.83558306  0.89473770    -0.28800
C1175       C  0.13277115  0.82221150  0.88590741     0.06700
C1176       C  0.15129725  0.79524988  0.89722169    -0.27500
H1177       H  0.03972572  0.85429210  0.91363220     0.11500
H1178       H  0.01365726  0.82693433  0.94593143     0.12600
H1179       H  0.18050756  0.74320106  0.92151857     0.11700
H1180       H  0.15525574  0.71698287  0.95447146     0.10900
H1181       H  0.10729883  0.71419556  0.98175715     0.16300
H1182       H  0.01639347  0.78281521  0.97550597     0.12200
H1183       H  0.08636311  0.85628964  0.88630272     0.15100
H1184       H  0.17582742  0.78469095  0.89070641     0.14800
C1185       C  0.01677251  0.62179922  0.91441486    -0.18000
C1186       C  0.03094980  0.63752074  0.93304754    -0.20200
C1187       C  0.00929527  0.65756488  0.94696407     0.20400
C1188       C  0.47297244  0.66184513  0.94205135    -0.03100
C1189       C  0.45869452  0.64612745  0.92315214    -0.06200
C1190       C  0.48074075  0.62596844  0.90932954     0.20700
C1191       C  0.42252360  0.65087249  0.91798808     0.18900
C1192       C  0.40084586  0.67078819  0.93200021    -0.17700
C1193       C  0.41489544  0.68600442  0.95087482    -0.19900
C1194       C  0.45091792  0.68179749  0.95601308     0.20400
C1195       C  0.46528049  0.69699782  0.97488449    -0.32900
C1196       C  0.50144060  0.69284127  0.97981638     0.01100
C1197       C  0.02328011  0.67312811  0.96578677    -0.24200
C1198       C  0.46661541  0.61096062  0.89040929    -0.28800
C1199       C  0.43088429  0.61649980  0.88469384     0.06700
C1200       C  0.40888519  0.63623297  0.89871575    -0.27500
H1201       H  0.03407964  0.60652111  0.90389551     0.11500
H1202       H  0.05886110  0.63398368  0.93658199     0.12600
H1203       H  0.37303063  0.67468660  0.92833054     0.11700
H1204       H  0.39758304  0.70122352  0.96142011     0.10900
H1205       H  0.44841059  0.71205870  0.98579368     0.16300
H1206       H  0.05098433  0.66928382  0.96981253     0.12200
H1207       H  0.48399429  0.59623180  0.87964169     0.15100
H1208       H  0.38135828  0.64067054  0.89445769     0.14800
C1209       C  0.29115218  0.56278447  0.62526684    -0.18000
C1210       C  0.28071418  0.55002973  0.60495175    -0.20200
C1211       C  0.30299872  0.52722404  0.59310586     0.20400
C1212       C  0.33611083  0.51706970  0.60178401    -0.03100
C1213       C  0.34642910  0.52958458  0.62238905    -0.06200
C1214       C  0.32390070  0.55267775  0.63415411     0.20700
C1215       C  0.37918240  0.51883453  0.63124424     0.18900
C1216       C  0.40108347  0.99868907  0.61683279    -0.17700
C1217       C  0.39026119  0.98719788  0.59631345    -0.19900
C1218       C  0.35683587  0.99676914  0.58821344     0.20400
C1219       C  0.34555837  0.98483680  0.56779332    -0.32900
C1220       C  0.31155723  0.99337767  0.56018545     0.01100
C1221       C  0.29256062  0.51396687  0.57288015    -0.24200
C1222       C  0.33441243  0.56506100  0.65463681    -0.31200
C1223       C  0.36695009  0.55424361  0.66365138     0.06700
C1224       C  0.38913311  0.53109770  0.65178287    -0.27500
H1225       H  0.27349738  0.58040565  0.63409008     0.11500
H1226       H  0.25518924  0.55798615  0.59850659     0.12600
H1227       H  0.42699628  0.99085610  0.62273250     0.11700
H1228       H  0.40800161  0.97066605  0.58680889     0.10900
H1229       H  0.36262041  0.96779535  0.55813380     0.16300
H1230       H  0.26678460  0.52088689  0.56632612     0.12200
H1231       H  0.31706323  0.58276047  0.66363921     0.15100
H1232       H  0.41436705  0.52267536  0.65845485     0.14800
C1233       C  0.27732889  0.87674368  0.62990739    -0.18000
C1234       C  0.28910671  0.88754897  0.60947527    -0.20200
C1235       C  0.26711165  0.90801549  0.59597584     0.20400
C1236       C  0.23315075  0.91828488  0.60325438    -0.03100
C1237       C  0.22142333  0.90770340  0.62398851    -0.06200
C1238       C  0.24348187  0.88647614  0.63725621     0.20700
C1239       C  0.18755783  0.91807567  0.63134313     0.18900
C1240       C  0.16584341  0.93917063  0.61799022    -0.17700
C1241       C  0.17736128  0.94945450  0.59737609    -0.19900
C1242       C  0.21083984  0.93895544  0.58978365     0.20400
C1243       C  0.22251792  0.94882257  0.56903439    -0.32900
C1244       C  0.25635590  0.93872299  0.56182260     0.01100
C1245       C  0.27850802  0.91840627  0.57533947    -0.24200
C1246       C  0.23122889  0.87509681  0.65755289    -0.28800
C1247       C  0.19731747  0.88494230  0.66494574     0.06700
C1248       C  0.17583123  0.90685124  0.65180228    -0.27500
H1249       H  0.29467459  0.86062810  0.63993943     0.11500
H1250       H  0.31531847  0.87964439  0.60415531     0.12600
H1251       H  0.13981278  0.94747257  0.62342217     0.11700
H1252       H  0.16000203  0.96553372  0.58733217     0.10900
H1253       H  0.20575137  0.96502046  0.55867234     0.16300
H1254       H  0.30474683  0.91099398  0.56976326     0.12200
H1255       H  0.24817123  0.85853769  0.66758582     0.15100
H1256       H  0.14965867  0.91463359  0.65728173     0.14800
C1257       C  0.15348530  0.00203928  0.11486231    -0.18000
C1258       C  0.16847103  0.98618231  0.09646909    -0.20200
C1259       C  0.20059321  0.99895315  0.08799479     0.20400
C1260       C  0.22284512  0.52929598  0.09933454    -0.03100
C1261       C  0.20629000  0.54357527  0.11794224    -0.06200
C1262       C  0.18359245  0.52187244  0.13045252     0.20700
C1263       C  0.21299488  0.57924774  0.12426132     0.18900
C1264       C  0.23536314  0.60065096  0.11150418    -0.17700
C1265       C  0.25129566  0.58668866  0.09283468    -0.19900
C1266       C  0.24545472  0.55096931  0.08671047     0.20400
C1267       C  0.26172982  0.53647525  0.06822118    -0.32900
C1268       C  0.24885437  0.99526702  0.06184414     0.01100
C1269       C  0.21640251  0.98258521  0.06992006    -0.24200
C1270       C  0.16840326  0.53561986  0.14940857    -0.28800
C1271       C  0.17636465  0.57049513  0.15653681     0.06700
C1272       C  0.19811700  0.59245074  0.14356250    -0.27500
H1273       H  0.12902851  0.99122258  0.12131433     0.11500
H1274       H  0.15517665  0.96358710  0.08904868     0.12600
H1275       H  0.24076103  0.62812129  0.11605806     0.11700
H1276       H  0.26850965  0.60373214  0.08331184     0.10900
H1277       H  0.27874243  0.55305399  0.05825371     0.16300
H1278       H  0.20360357  0.96003217  0.06211023     0.12200
H1279       H  0.15190728  0.51831269  0.15923227     0.15100
H1280       H  0.20436530  0.61940885  0.14881118     0.14800
C1281       C  0.06101533  0.60688331  0.44837737    -0.18000
C1282       C  0.07237073  0.59557733  0.42791174    -0.20200
C1283       C  0.09075405  0.61906953  0.41418131     0.20400
C1284       C  0.09811596  0.65419827  0.42122735    -0.03100
C1285       C  0.08654225  0.66565789  0.44186402    -0.06200
C1286       C  0.06774518  0.64193023  0.45547048     0.20700
C1287       C  0.09343307  0.70098048  0.44876132     0.18900
C1288       C  0.11199452  0.72439927  0.43509823    -0.17700
C1289       C  0.12358441  0.71300123  0.41471253    -0.19900
C1290       C  0.11675502  0.67798502  0.40759550     0.20400
C1291       C  0.12801768  0.66645631  0.38705120    -0.32900
C1292       C  0.12040566  0.63159170  0.37977465     0.01100
C1293       C  0.10172994  0.60810049  0.39350401    -0.24200
C1294       C  0.05535337  0.65392704  0.47568629    -0.28800
C1295       C  0.06127396  0.68940471  0.48232523     0.06700
C1296       C  0.08107314  0.71245711  0.46901873    -0.27500
H1297       H  0.54668316  0.58830605  0.45858535     0.11500
H1298       H  0.06659250  0.56846085  0.42277072     0.12600
H1299       H  0.11736570  0.75165915  0.44013050     0.11700
H1300       H  0.13774506  0.73165643  0.40445735     0.10900
H1301       H  0.14218978  0.68481980  0.37659753     0.16300
H1302       H  0.09591266  0.58108334  0.38816727     0.12200
H1303       H  0.04012995  0.63613778  0.48595271     0.15100
H1304       H  0.08619602  0.73963266  0.47431739     0.14800
C1305       C  0.41237756  0.50420128  0.42959648    -0.18000
C1306       C  0.39953014  0.48945871  0.44888719    -0.20200
C1307       C  0.36462805  0.49614582  0.45561946     0.20400
C1308       C  0.34252255  0.51819569  0.44286583    -0.03100
C1309       C  0.35564711  0.53343627  0.42353590    -0.06200
C1310       C  0.39064600  0.52616047  0.41677897     0.20700
C1311       C  0.33361437  0.55564432  0.41088043     0.18900
C1312       C  0.29872217  0.56242075  0.41763763    -0.17700
C1313       C  0.28563272  0.54712072  0.43668661    -0.19900
C1314       C  0.30725706  0.52488981  0.44936083     0.20400
C1315       C  0.29424654  0.50923792  0.46839657    -0.32900
C1316       C  0.31324242  0.98593776  0.47975012     0.01100
C1317       C  0.34897696  0.98079000  0.47409754    -0.24200
C1318       C  0.40314881  0.54055922  0.39720352    -0.28800
C1319       C  0.38126240  0.56251399  0.38435072     0.06700
C1320       C  0.34663207  0.57023524  0.39152144    -0.27500
H1321       H  0.43931905  0.49835765  0.42467386     0.11500
H1322       H  0.41557393  0.97424027  0.45898245     0.12600
H1323       H  0.28143284  0.57937891  0.40809287     0.11700
H1324       H  0.25855456  0.55261013  0.44148081     0.10900
H1325       H  0.26721583  0.51432927  0.47349600     0.16300
H1326       H  0.36612925  0.96562589  0.48478936     0.12200
H1327       H  0.42982799  0.53438485  0.39188440     0.15100
H1328       H  0.32930497  0.58674512  0.38171065     0.14800
C1329       C  0.02588612  0.79783308  0.10842751    -0.18000
C1330       C  0.03791794  0.80855548  0.12885542    -0.20200
C1331       C  0.07166079  0.79832987  0.13620324     0.20400
C1332       C  0.09338264  0.77682794  0.12291740    -0.03100
C1333       C  0.08141191  0.76633809  0.10220428    -0.06200
C1334       C  0.04750332  0.77692012  0.09494199     0.20700
C1335       C  0.10339405  0.74527392  0.08877687     0.18900
C1336       C  0.13678231  0.73441198  0.09631522    -0.17700
C1337       C  0.14853153  0.74460345  0.11689296    -0.19900
C1338       C  0.12714805  0.76597891  0.13025715     0.20400
C1339       C  0.13913622  0.77700294  0.15071361    -0.32900
C1340       C  0.11803313  0.79919143  0.16386941     0.01100
C1341       C  0.08417341  0.80948358  0.15651034    -0.24200
C1342       C  0.03575731  0.76615415  0.07440192    -0.28800
C1343       C  0.05760125  0.74523238  0.06101099     0.06700
C1344       C  0.09145038  0.73516233  0.06815501    -0.27500
H1345       H  0.49974075  0.80606442  0.10312973     0.11500
H1346       H  0.02083944  0.82493291  0.13889722     0.12600
H1347       H  0.15385779  0.71803078  0.08627474     0.11700
H1348       H  0.17447450  0.73595749  0.12230251     0.10900
H1349       H  0.16524671  0.76891918  0.15616509     0.16300
H1350       H  0.06749941  0.82627558  0.16656344     0.12200
H1351       H  0.00949554  0.77360036  0.06885901     0.15100
H1352       H  0.10795715  0.71855444  0.05787729     0.14800
C1353       C  0.52473923  0.62225425  0.12606155    -0.18000
C1354       C  0.03614413  0.63507115  0.10596637    -0.20200
C1355       C  0.51356234  0.65603790  0.09311183     0.20400
C1356       C  0.47916252  0.66426306  0.10057335    -0.03100
C1357       C  0.46780269  0.65164396  0.12097049    -0.06200
C1358       C  0.49067296  0.63045234  0.13373573     0.20700
C1359       C  0.43367437  0.66043499  0.12862998     0.18900
C1360       C  0.41108890  0.68138181  0.11575097    -0.17700
C1361       C  0.42223000  0.69364861  0.09546762    -0.19900
C1362       C  0.45621294  0.68531944  0.08774051     0.20400
C1363       C  0.46783406  0.69802811  0.06756099    -0.32900
C1364       C  0.50224567  0.69038973  0.06028344     0.01100
C1365       C  0.02487571  0.66920513  0.07303051    -0.24200
C1366       C  0.47923234  0.61811602  0.15402511    -0.28800
C1367       C  0.44541630  0.62719421  0.16195106     0.06700
C1368       C  0.42279626  0.64833151  0.14907444    -0.27500
H1369       H  0.54266944  0.60610408  0.13567156     0.11500
H1370       H  0.06265793  0.62859520  0.10047720     0.12600
H1371       H  0.38478457  0.68835148  0.12139047     0.11700
H1372       H  0.40432022  0.70983741  0.08587058     0.10900
H1373       H  0.45058438  0.71464641  0.05776220     0.16300
H1374       H  0.05145092  0.66339207  0.06734304     0.12200
H1375       H  0.49694870  0.60197500  0.16379973     0.15100
H1376       H  0.39659741  0.65530595  0.15491345     0.14800
C1377       C  0.17109801  0.93166358  0.45045117    -0.18000
C1378       C  0.15717711  0.91823490  0.43107793    -0.20200
C1379       C  0.17787490  0.89645645  0.41755808     0.20400
C1380       C  0.21290033  0.88786047  0.42376834    -0.03100
C1381       C  0.22717120  0.90190631  0.44316102    -0.06200
C1382       C  0.20608981  0.92387683  0.45656212     0.20700
C1383       C  0.26261455  0.89435389  0.44898754     0.18900
C1384       C  0.28318375  0.87218842  0.43561792    -0.17700
C1385       C  0.26888260  0.85786987  0.41656971    -0.19900
C1386       C  0.23387921  0.86576690  0.41042980     0.20400
C1387       C  0.21983806  0.85273535  0.39091133    -0.32900
C1388       C  0.18536595  0.86225603  0.38413465     0.01100
C1389       C  0.16442561  0.88381908  0.39773888    -0.24200
C1390       C  0.22047202  0.93799514  0.47570123    -0.28800
C1391       C  0.25588706  0.93118825  0.48135800     0.06700
C1392       C  0.27685315  0.90930803  0.46798076    -0.27500
H1393       H  0.15458472  0.94851422  0.46055308     0.11500
H1394       H  0.13024236  0.92506720  0.42660498     0.12600
H1395       H  0.31038448  0.86602726  0.43985042     0.11700
H1396       H  0.28538443  0.84098874  0.40647708     0.10900
H1397       H  0.23644273  0.83637320  0.38056538     0.16300
H1398       H  0.13786964  0.89123601  0.39275518     0.12200
H1399       H  0.20440777  0.95495494  0.48602765     0.15100
H1400       H  0.30413395  0.90391138  0.47244939     0.14800
C1401       C  0.28274964  0.87472019  0.10674523    -0.18000
C1402       C  0.29801772  0.85864863  0.12500204    -0.20200
C1403       C  0.33258785  0.86764522  0.13151625     0.20400
C1404       C  0.35201695  0.89291091  0.11940342    -0.03100
C1405       C  0.33667101  0.90902975  0.10092808    -0.06200
C1406       C  0.30180571  0.89998970  0.09460538     0.20700
C1407       C  0.35629048  0.93412237  0.08876112     0.18900
C1408       C  0.39083276  0.94306201  0.09523313    -0.17700
C1409       C  0.40586551  0.92737832  0.11362585    -0.19900
C1410       C  0.38669692  0.90233413  0.12583083     0.20400
C1411       C  0.40140165  0.88716261  0.14457680    -0.32900
C1412       C  0.38198367  0.86260967  0.15712133     0.01100
C1413       C  0.34776985  0.85245362  0.15017336    -0.24200
C1414       C  0.28690244  0.91600907  0.07610227    -0.28800
C1415       C  0.30667328  0.94046065  0.06372627     0.06700
C1416       C  0.34122159  0.94949112  0.07018756    -0.27500
H1417       H  0.25602392  0.86734582  0.10210588     0.11500
H1418       H  0.28267560  0.83932805  0.13411598     0.12600
H1419       H  0.40624135  0.96226568  0.08607187     0.11700
H1420       H  0.43250503  0.93492738  0.11834394     0.10900
H1421       H  0.42775103  0.89514438  0.14965595     0.16300
H1422       H  0.33234570  0.83374367  0.15969924     0.12200
H1423       H  0.26037663  0.90877441  0.07094251     0.15100
H1424       H  0.35645328  0.96822543  0.06054463     0.14800
C1425       C  0.43246805  0.72586177  0.41723992    -0.18000
C1426       C  0.44335444  0.71524935  0.43791191    -0.20200
C1427       C  0.46891358  0.73511943  0.44922902     0.20400
C1428       C  0.48355374  0.76610538  0.43968524    -0.03100
C1429       C  0.47284991  0.77657521  0.41873162    -0.06200
C1430       C  0.44718490  0.75636476  0.40747593     0.20700
C1431       C  0.48795019  0.80717254  0.40903418     0.18900
C1432       C  0.01338792  0.82712403  0.42040711    -0.17700
C1433       C  0.02383098  0.81689778  0.44122690    -0.19900
C1434       C  0.00908530  0.78647346  0.45100331     0.20400
C1435       C  0.01972819  0.77578844  0.47177050    -0.32900
C1436       C  0.00584974  0.74452630  0.48102615     0.01100
C1437       C  0.48042595  0.72437170  0.46979933    -0.24200
C1438       C  0.43672996  0.76695602  0.38664895    -0.28800
C1439       C  0.45170486  0.79744744  0.37679634     0.06700
C1440       C  0.47738262  0.81731855  0.38814988    -0.27500
H1441       H  0.41268776  0.71007592  0.40882931     0.11500
H1442       H  0.43182059  0.69144974  0.44503615     0.12600
H1443       H  0.02524321  0.85067789  0.41318586     0.11700
H1444       H  0.04357381  0.83270957  0.44965020     0.10900
H1445       H  0.03960052  0.79102781  0.48048888     0.16300
H1446       H  0.46999019  0.70013047  0.47704414     0.12200
H1447       H  0.41691925  0.75134583  0.37813426     0.15100
H1448       H  0.48902079  0.84090910  0.38083246     0.14800
C1449       C  0.93712573  0.31053045  0.35660990     0.80000
N1450       N  0.95311971  0.33843605  0.34640822    -0.78300
C1451       C  0.94118308  0.34996926  0.32690033     0.82500
N1452       N  0.91308011  0.33346369  0.31744965    -0.78200
C1453       C  0.89712035  0.30535749  0.32736199     0.82600
N1454       N  0.90911263  0.29404986  0.34694898    -0.80000
C1455       C  0.89548733  0.35526924  0.17951729     0.80000
N1456       N  0.92188176  0.37289924  0.19014683    -0.78300
C1457       C  0.92965219  0.36486465  0.21101993     0.82500
N1458       N  0.91033487  0.33975058  0.22151419    -0.78200
C1459       C  0.88488096  0.32097507  0.21094439     0.82600
N1460       N  0.87721950  0.32895354  0.18997124    -0.80000
C1461       C  0.67430449  0.35204922  0.36333698     0.80000
N1462       N  0.69191514  0.32644913  0.35196643    -0.78300
C1463       C  0.68365308  0.31979361  0.33099485     0.82500
N1464       N  0.65809599  0.33938395  0.32111299    -0.78200
C1465       C  0.63922853  0.36400956  0.33244858     0.82600
N1466       N  0.64754545  0.37055010  0.35353842    -0.80000
C1467       C  0.93484991  0.11863685  0.18349084     0.80000
N1468       N  0.95181399  0.09098190  0.19336223    -0.78300
C1469       C  0.94066383  0.07869959  0.21293204     0.82500
N1470       N  0.91242350  0.09439421  0.22280722    -0.78200
C1471       C  0.89570756  0.12242520  0.21316953     0.82600
N1472       N  0.90692753  0.13425073  0.19357677    -0.80000
C1473       C  0.95803487  0.38061709  0.31624894     0.42300
N1474       N  0.49216825  0.42517004  0.31003282     0.01100
C1475       C  0.49159856  0.03136459  0.21558208    -0.06700
H1476       H  0.50183089  0.39904429  0.20070000     0.06600
C1477       C  0.62038329  0.39795927  0.24683029    -0.07100
Co1478     Co  0.96964295  0.46537042  0.27021129     0.74200
N1479       N  0.49602840  0.42739475  0.23100911    -0.26300
Co1480     Co  0.53659068  0.46536577  0.23202467     0.74100
C1481       C  0.60772432  0.38065294  0.22713040     0.42400
N1482       N  0.59657731  0.42634837  0.29788540     0.00800
N1483       N  0.57495275  0.42578920  0.23379513     0.00900
N1484       N  0.94794489  0.03022395  0.24075290    -0.47100
H1485       H  0.92393137  0.39236675  0.28621527     0.06600
N1486       N  0.97127596  0.42676370  0.24605870     0.01100
N1487       N  0.57611348  0.00486923  0.23115784     0.00900
C1488       C  0.61283979  0.04646483  0.22309111     0.42500
N1489       N  0.57190673  0.42676524  0.31302255    -0.25700
C1490       C  0.94203150  0.02660695  0.29593386    -0.06600
N1491       N  0.48651203  0.39861715  0.32382985    -0.46800
N1492       N  0.58425432  0.02831874  0.21581364    -0.47000
C1493       C  0.95054784  0.04123688  0.31711298     0.42300
N1494       N  0.97128860  0.00416342  0.24395726     0.01100
N1495       N  0.56848270  0.00529586  0.31035588    -0.25700
N1496       N  0.96886167  0.42575438  0.29404701    -0.26200
N1497       N  0.59412022  0.00641468  0.29580353     0.00800
H1498       H  0.55587366  0.03836368  0.33799574     0.06700
H1499       H  0.64532311  0.03709336  0.25404185     0.06700
N1500       N  0.49700105  0.00435222  0.22944225    -0.26300
N1501       N  0.59844902  0.42572971  0.24967444    -0.25900
N1502       N  0.48942263  0.00190145  0.30876329     0.01100
C1503       C  0.95472069  0.38694582  0.22325213     0.42500
C1504       C  0.58087844  0.40295905  0.32843988    -0.07100
N1505       N  0.59854350  0.00572638  0.24754979    -0.25900
H1506       H  0.64265538  0.39113270  0.25705925     0.06700
N1507       N  0.94602000  0.40313254  0.24198768    -0.47100
H1508       H  0.56688815  0.39864115  0.34348626     0.06700
C1509       C  0.60400926  0.05132256  0.31650082     0.42400
C1510       C  0.94622093  0.39846847  0.29659724    -0.06600
Co1511     Co  0.53109596  0.46472048  0.31210341     0.73800
N1512       N  0.62213853  0.40304346  0.30193932    -0.46800
C1513       C  0.95920421  0.04847339  0.22315797     0.42600
N1514       N  0.47989298  0.02436451  0.32436982    -0.46800
Co1515     Co  0.59824484  0.46516766  0.27372065     0.73900
C1516       C  0.62240826  0.03157113  0.24404995    -0.07200
C1517       C  0.48759226  0.40335270  0.21566211    -0.06700
N1518       N  0.96716135  0.00213366  0.29227872    -0.26200
N1519       N  0.57965472  0.39933675  0.21982147    -0.47000
H1520       H  0.50802637  0.03781487  0.20178383     0.06600
C1521       C  0.57257092  0.03263293  0.32419993    -0.07100
Cl1522     Cl  0.53392140  0.46519495  0.27203457    -0.50100
C1523       C  0.61399636  0.38696231  0.32079276     0.42400
H1524       H  0.91893689  0.03117445  0.28592231     0.06600
N1525       N  0.61607128  0.03361516  0.29892765    -0.46800
C1526       C  0.62824021  0.31146502  0.18603515     0.80000
N1527       N  0.61184779  0.33891993  0.19652959    -0.78300
C1528       C  0.62397796  0.35026868  0.21605843     0.82500
N1529       N  0.65240683  0.33419877  0.22513943    -0.78200
C1530       C  0.66886228  0.30677851  0.21500891     0.82600
N1531       N  0.65690347  0.29544234  0.19539815    -0.80000
C1532       C  0.89244766  0.07298873  0.36147566     0.80000
N1533       N  0.87394051  0.09906692  0.35089469    -0.78300
C1534       C  0.88164319  0.10726522  0.33000154     0.82500
N1535       N  0.90716869  0.08870068  0.31951533    -0.78200
C1536       C  0.92655689  0.06357461  0.32993675     0.82600
N1537       N  0.91903545  0.05546939  0.35089855    -0.80000
C1538       C  0.62788337  0.12289414  0.35549764     0.80000
N1539       N  0.65582475  0.13832722  0.34508811    -0.78300
C1540       C  0.66666680  0.12571486  0.32549741     0.82500
N1541       N  0.64960888  0.09761891  0.31631734    -0.78200
C1542       C  0.62164125  0.08223307  0.32641307     0.82600
N1543       N  0.61090328  0.09484523  0.34595659    -0.80000
C1544       C  0.66414150  0.08445803  0.17736994     0.80000
N1545       N  0.68339827  0.10984123  0.18797393    -0.78300
C1546       C  0.67899257  0.11522905  0.20951625     0.82500
N1547       N  0.65565594  0.09479296  0.22063930    -0.78200
C1548       C  0.63527920  0.07038445  0.21022680     0.82600
N1549       N  0.63979296  0.06494112  0.18863411    -0.80000
C1550       C  0.86197865  0.29707333  0.22351559     0.42300
N1551       N  0.82182930  0.25868299  0.23138828     0.01100
C1552       C  0.72132121  0.26146961  0.32592874    -0.06700
H1553       H  0.85463202  0.23840559  0.33832642     0.06600
C1554       C  0.84406835  0.12236970  0.29624418    -0.07100
Co1555     Co  0.78379679  0.27995996  0.27188626     0.74200
N1556       N  0.82221507  0.25060354  0.31048358    -0.26300
Co1557     Co  0.78263141  0.21193562  0.30998071     0.74100
C1558       C  0.85874458  0.13108233  0.31734878     0.42400
N1559       N  0.82182998  0.15226595  0.24435559     0.00800
N1560       N  0.81976405  0.17039076  0.30899649     0.00900
N1561       N  0.72168344  0.30389077  0.29986692    -0.47100
H1562       H  0.85176254  0.32919564  0.25456052     0.06600
N1563       N  0.82290670  0.27669109  0.29604476     0.01100
N1564       N  0.74282991  0.17373611  0.30796921     0.00900
C1565       C  0.69743732  0.14131418  0.31448170     0.42500
N1566       N  0.82200978  0.17841720  0.22994407    -0.25700
C1567       C  0.71729143  0.30303344  0.24506678    -0.06600
N1568       N  0.84473417  0.26784136  0.21603453    -0.46800
N1569       N  0.71642450  0.16932902  0.32183494    -0.47000
C1570       C  0.70000201  0.29072812  0.22529800     0.42300
N1571       N  0.74517861  0.27841602  0.29584517     0.01100
N1572       N  0.74532067  0.17812101  0.22890169    -0.25700
N1573       N  0.82210584  0.28119574  0.24784548    -0.26200
N1574       N  0.74407094  0.15294700  0.24383376     0.00800
H1575       H  0.71622557  0.18625907  0.19914799     0.06700
H1576       H  0.70752192  0.10608256  0.28447881     0.06700
N1577       N  0.74547895  0.25323362  0.31078550    -0.26300
N1578       N  0.81983022  0.14775888  0.29259047    -0.25900
N1579       N  0.74478492  0.25746719  0.23164615     0.01100
C1580       C  0.86681199  0.28746307  0.31709123     0.42500
C1581       C  0.84878406  0.17323156  0.21613388    -0.07100
N1582       N  0.74252550  0.15012703  0.29202960    -0.25900
H1583       H  0.84855871  0.09902726  0.28625196     0.06700
N1584       N  0.84931519  0.29945807  0.29942905    -0.47100
H1585       H  0.85509813  0.18994151  0.20237581     0.06700
C1586       C  0.70317269  0.13865487  0.22141587     0.42400
C1587       C  0.84702811  0.30598816  0.24449215    -0.06600
Co1588     Co  0.78357667  0.21820205  0.23001230     0.73800
N1589       N  0.84776184  0.12883271  0.24113889    -0.46800
C1590       C  0.70520199  0.29472748  0.31839575     0.42600
N1591       N  0.71842676  0.26246019  0.21776738    -0.46800
Co1592     Co  0.78209818  0.15004545  0.26815368     0.73900
C1593       C  0.71458279  0.12839749  0.29477132    -0.07200
C1594       C  0.84892624  0.25519961  0.32450427    -0.06700
N1595       N  0.74481751  0.28085097  0.24770498    -0.26200
N1596       N  0.84213406  0.16082799  0.32457199    -0.47000
H1597       H  0.71667730  0.24679957  0.34074273     0.06600
C1598       C  0.72065065  0.17110314  0.21381122    -0.07100
Cl1599     Cl  0.78314954  0.21502630  0.27000962    -0.50100
C1600       C  0.86577316  0.14054580  0.22361945     0.42400
H1601       H  0.71045808  0.32516724  0.25555095     0.06600
N1602       N  0.71931832  0.12871473  0.23991834    -0.46800
C1603       C  0.80245785  0.47218930  0.50162614     0.02100
C1604       C  0.77406109  0.44741609  0.50198205     0.02000
C1605       C  0.75997418  0.43636174  0.52195281    -0.18500
C1606       C  0.77382983  0.44933832  0.54150738     0.02100
C1607       C  0.80194895  0.47430360  0.54104093     0.02000
C1608       C  0.81633684  0.48505140  0.52120042    -0.18500
H1609       H  0.83388159  0.00593692  0.51945545     0.04100
H1610       H  0.73854893  0.41702945  0.52228196     0.04100
C1611       C  0.51559389  0.20863293  0.03925525     0.02100
C1612       C  0.54406714  0.23318169  0.03984335     0.02000
C1613       C  0.55946887  0.24483794  0.02044962    -0.18500
C1614       C  0.54636668  0.23322458  0.00038437     0.02100
C1615       C  0.51749583  0.20900536  0.99972856     0.02000
C1616       C  0.00231325  0.19712000  0.01923020    -0.18500
H1617       H  0.98083965  0.17784212  0.01883719     0.04100
H1618       H  0.58112332  0.26390441  0.02096864     0.04100
C1619       C  0.54916918  0.20616293  0.50214964     0.02100
C1620       C  0.52332416  0.23348821  0.50228643     0.02000
C1621       C  0.51008477  0.24623415  0.52204309    -0.18500
C1622       C  0.52220242  0.23234322  0.54182797     0.02100
C1623       C  0.54807991  0.20479613  0.54177046     0.02000
C1624       C  0.56102214  0.19187723  0.52185185    -0.18500
H1625       H  0.58097160  0.17099248  0.52167432     0.04100
H1626       H  0.99003682  0.26703396  0.52201173     0.04100
C1627       C  0.79505291  0.45605003  0.04238965     0.02100
C1628       C  0.77159488  0.48571636  0.04236149     0.02000
C1629       C  0.76000871  0.50000581  0.02258468    -0.18500
C1630       C  0.77108512  0.48525787  0.00289534     0.02100
C1631       C  0.79523974  0.45644088  0.00284935     0.02000
C1632       C  0.80661698  0.44176702  0.02254979    -0.18500
H1633       H  0.82535526  0.41976154  0.02243575     0.04100
H1634       H  0.73100311  0.01111915  0.02123867     0.04100
C1635       C  0.87536704  0.37551886  0.85652301     0.80000
N1636       N  0.90289534  0.39244492  0.84665571    -0.78300
C1637       C  0.91499216  0.38103768  0.82714740     0.82500
N1638       N  0.89941128  0.35267007  0.81736640    -0.78200
C1639       C  0.87171235  0.33576755  0.82688794     0.82600
N1640       N  0.85982316  0.34706636  0.84650868    -0.80000
C1641       C  0.92245085  0.10860209  0.86118505     0.80000
N1642       N  0.89578971  0.12656794  0.85099139    -0.78300
C1643       C  0.88782286  0.11908657  0.83001767     0.82500
N1644       N  0.90688034  0.09415612  0.81919821    -0.78200
C1645       C  0.93244460  0.07519364  0.82938822     0.82600
N1646       N  0.94057347  0.08275822  0.85027678    -0.80000
C1647       C  0.68696988  0.06132516  0.85630782     0.80000
N1648       N  0.65931088  0.04561106  0.84572815    -0.78300
C1649       C  0.64871367  0.05810583  0.82604983     0.82500
N1650       N  0.66588573  0.08621068  0.81695481    -0.78200
C1651       C  0.69366067  0.10174857  0.82722703     0.82600
N1652       N  0.70401581  0.08937459  0.84688565    -0.80000
C1653       C  0.64264587  0.33267486  0.86217978     0.80000
N1654       N  0.62431102  0.35804259  0.85103915    -0.78300
C1655       C  0.63122418  0.36426679  0.82983608     0.82500
N1656       N  0.65623887  0.34446714  0.81952002    -0.78200
C1657       C  0.67584093  0.32014553  0.83068845     0.82600
N1658       N  0.66879656  0.31411358  0.85194615    -0.80000
C1659       C  0.64900735  0.10511764  0.67878034     0.80000
N1660       N  0.67398820  0.12305750  0.69041135    -0.78300
C1661       C  0.67977702  0.11486239  0.71149972     0.82500
N1662       N  0.65974292  0.08939780  0.72118550    -0.78200
C1663       C  0.63559560  0.07045741  0.70963479     0.82600
N1664       N  0.63003455  0.07851172  0.68844421    -0.80000
C1665       C  0.87960914  0.06709590  0.68417059     0.80000
N1666       N  0.90775598  0.05143772  0.69403517    -0.78300
C1667       C  0.91968843  0.06344632  0.71345256     0.82500
N1668       N  0.90341362  0.09165298  0.72316915    -0.78200
C1669       C  0.87497438  0.10737151  0.71352085     0.82600
N1670       N  0.86316308  0.09497090  0.69410823    -0.80000
C1671       C  0.85542402  0.30505769  0.81598455     0.42300
N1672       N  0.82219728  0.26011160  0.80921492     0.01100
C1673       C  0.82394709  0.15426077  0.71656088    -0.06700
H1674       H  0.81112840  0.28574172  0.69953361     0.06600
C1675       C  0.69238578  0.28373754  0.74621053    -0.07100
Co1676     Co  0.84573276  0.22084782  0.76918103     0.74200
N1677       N  0.81781644  0.25810545  0.73000727    -0.26300
Co1678     Co  0.77838600  0.21904187  0.73115808     0.74100
C1679       C  0.70429151  0.30167361  0.72655351     0.42400
N1680       N  0.71794900  0.25627634  0.79699985     0.00800
N1681       N  0.73869290  0.25752724  0.73304567     0.00900
N1682       N  0.86781540  0.15542576  0.74164597    -0.47100
H1683       H  0.88982688  0.29475283  0.78586508     0.06600
N1684       N  0.84271456  0.25945653  0.74498738     0.01100
N1685       N  0.73924682  0.17957881  0.73257934     0.00900
C1686       C  0.70305063  0.13732682  0.72473320     0.42500
N1687       N  0.74280600  0.25667592  0.81202973    -0.25700
C1688       C  0.87286067  0.15762448  0.79669032    -0.06600
N1689       N  0.82732543  0.28634423  0.82332755    -0.46800
N1690       N  0.73128757  0.15589291  0.71733090    -0.47000
C1691       C  0.86413328  0.14226171  0.81760436     0.42300
N1692       N  0.84413339  0.18106984  0.74512896     0.01100
N1693       N  0.74680202  0.17892963  0.81157521    -0.25700
N1694       N  0.84547552  0.26036612  0.79322183    -0.26200
N1695       N  0.72120067  0.17785671  0.79698634     0.00800
H1696       H  0.75951713  0.14553148  0.83905289     0.06700
H1697       H  0.67057764  0.14667678  0.75564241     0.06700
N1698       N  0.81829924  0.18082068  0.73067803    -0.26300
N1699       N  0.71530809  0.25670617  0.74895590    -0.25900
N1700       N  0.82582243  0.18247565  0.80989495     0.01100
C1701       C  0.85819341  0.29922338  0.72187657     0.42500
C1702       C  0.73406264  0.28138243  0.82694738    -0.07100
N1703       N  0.71688934  0.17858793  0.74896474    -0.25900
H1704       H  0.67003049  0.28979322  0.75653223     0.06700
N1705       N  0.86740446  0.28355743  0.74069389    -0.47100
H1706       H  0.74846881  0.28686542  0.84172092     0.06700
C1707       C  0.71144399  0.13263659  0.81741763     0.42400
C1708       C  0.86756392  0.28801903  0.79610433    -0.06600
Co1709     Co  0.78445914  0.21961319  0.81117701     0.73800
N1710       N  0.69242439  0.27981840  0.80063921    -0.46800
C1711       C  0.85660895  0.13747418  0.72390834     0.42600
N1712       N  0.83506290  0.15926573  0.82515315    -0.46800
Co1713     Co  0.71717975  0.21730114  0.77301212     0.73900
C1714       C  0.69338529  0.15235646  0.74561580    -0.07200
C1715       C  0.82556088  0.28207129  0.71449854    -0.06700
N1716       N  0.84805093  0.18254279  0.79340659    -0.26200
N1717       N  0.73299800  0.28397142  0.71918987    -0.47000
H1718       H  0.80755515  0.14798827  0.70269955     0.06600
C1719       C  0.74280016  0.15138839  0.82527385    -0.07100
Cl1720     Cl  0.78146728  0.21922672  0.77113789    -0.50100
C1721       C  0.70091696  0.29704798  0.81906823     0.42400
H1722       H  0.89573950  0.15294440  0.78653059     0.06600
N1723       N  0.69937997  0.15050836  0.79992129    -0.46800
C1724       C  0.91664788  0.33207289  0.67803706     0.80000
N1725       N  0.93513340  0.35800545  0.68882329    -0.78300
C1726       C  0.92765622  0.36550531  0.70990326     0.82500
N1727       N  0.90216248  0.34658391  0.72025907    -0.78200
C1728       C  0.88270817  0.32178319  0.70956720     0.82600
N1729       N  0.89024428  0.31425315  0.68855981    -0.80000
C1730       C  0.68392056  0.37286246  0.68661788     0.80000
N1731       N  0.65477030  0.38798195  0.69581596    -0.78300
C1732       C  0.64220320  0.37545490  0.71496484     0.82500
N1733       N  0.65851882  0.34756402  0.72481143    -0.78200
C1734       C  0.68750972  0.33227159  0.71580967     0.82600
N1735       N  0.70026494  0.34501224  0.69676030    -0.80000
C1736       C  0.95071879  0.38898029  0.72284136     0.42300
N1737       N  0.99111300  0.42688835  0.73137881     0.01100
C1738       C  0.59303386  0.42250490  0.82548764    -0.06700
H1739       H  0.95878746  0.44689761  0.83854116     0.06600
C1740       C  0.97060466  0.06130888  0.79581767    -0.07100
Co1741     Co  0.52854070  0.40462504  0.77196544     0.74200
N1742       N  0.99113785  0.43407533  0.81078216    -0.26300
Co1743     Co  0.53108606  0.47224339  0.81047496     0.74100
C1744       C  0.95524797  0.05181140  0.81659250     0.42400
N1745       N  0.99371834  0.03292495  0.74435257     0.00800
N1746       N  0.99568902  0.01392979  0.80879241     0.00900
N1747       N  0.59133246  0.38006588  0.79942472    -0.47100
H1748       H  0.95979605  0.35645696  0.75387318     0.06600
N1749       N  0.98972508  0.40835440  0.79613030     0.01100
N1750       N  0.57267167  0.01001263  0.80801159     0.00900
C1751       C  0.61805782  0.04241751  0.81483050     0.42500
N1752       N  0.99312743  0.00684630  0.72989781    -0.25700
C1753       C  0.59365621  0.37969715  0.74487749    -0.06600
N1754       N  0.96850275  0.41812320  0.71573115    -0.46800
N1755       N  0.59895627  0.01435678  0.82201617    -0.47000
C1756       C  0.61119785  0.39171337  0.72519476     0.42300
N1757       N  0.56755295  0.40549171  0.79587309     0.01100
N1758       N  0.56981288  0.00620943  0.72881254    -0.25700
N1759       N  0.99013800  0.40425122  0.74776338    -0.26200
N1760       N  0.57138831  0.03115664  0.74391078     0.00800
H1761       H  0.59790417  0.99923582  0.69857153     0.06700
H1762       H  0.60810828  0.07791984  0.78494271     0.06700
N1763       N  0.56805955  0.43072033  0.81081936    -0.26300
N1764       N  0.99567195  0.03664766  0.79246700    -0.25900
N1765       N  0.56806154  0.42688642  0.73200363     0.01100
C1766       C  0.94543607  0.39856754  0.81695979     0.42500
C1767       C  0.96634734  0.01238201  0.71612759    -0.07100
N1768       N  0.57310004  0.03375105  0.79215719    -0.25900
H1769       H  0.96560877  0.08443214  0.78574195     0.06700
N1770       N  0.96266871  0.38633062  0.79927693    -0.47100
H1771       H  0.95968026  0.99570819  0.70239970     0.06700
C1772       C  0.61152360  0.04635380  0.72120430     0.42400
C1773       C  0.96497987  0.37978071  0.74400635    -0.06600
Co1774     Co  0.52999148  0.46698418  0.73047610     0.73800
N1775       N  0.96803981  0.05667943  0.74120658    -0.46800
C1776       C  0.60881634  0.38923697  0.81763868     0.42600
N1777       N  0.59399730  0.42102026  0.71799733    -0.46800
Co1778     Co  0.53348581  0.03434260  0.76820367     0.73900
C1779       C  0.60104007  0.05545081  0.79508997    -0.07200
C1780       C  0.96421312  0.43007094  0.82468567    -0.06700
N1781       N  0.56722296  0.40308054  0.74781171    -0.26200
N1782       N  0.97241831  0.02259464  0.82399260    -0.47000
H1783       H  0.59858580  0.43730222  0.84015160     0.06600
C1784       C  0.59400046  0.01384490  0.71349593    -0.07100
Cl1785     Cl  0.53033588  0.46960935  0.77049494    -0.50100
C1786       C  0.94979888  0.04523887  0.72367873     0.42400
H1787       H  0.59952873  0.35695726  0.75509298     0.06600
N1788       N  0.59584897  0.05562804  0.73995467    -0.46800
C1789       C  0.69485447  0.46712159  0.93889917    -0.18000
C1790       C  0.68175694  0.47872961  0.91889058    -0.20200
C1791       C  0.70087322  0.00275300  0.90612033     0.20400
C1792       C  0.71964757  0.02645639  0.91976861    -0.03100
C1793       C  0.73080345  0.01510149  0.94050069    -0.06200
C1794       C  0.71830990  0.48865891  0.95081077     0.20700
C1795       C  0.74928637  0.03896800  0.95421277     0.18900
C1796       C  0.75659674  0.07380114  0.94703185    -0.17700
C1797       C  0.74581484  0.08493441  0.92643831    -0.19900
C1798       C  0.72739498  0.06146403  0.91268855     0.20400
C1799       C  0.71672535  0.07241396  0.89196703    -0.32900
C1800       C  0.69789528  0.04907475  0.87821596     0.01100
C1801       C  0.68979983  0.01433108  0.88552915    -0.24200
C1802       C  0.73214764  0.47693945  0.97065297    -0.28800
C1803       C  0.75551594  0.49872442  0.98249346     0.06700
C1804       C  0.76036551  0.02745898  0.97475998    -0.27500
H1805       H  0.68677820  0.44120919  0.94500825     0.11500
H1806       H  0.66383103  0.46151048  0.90996379     0.12600
H1807       H  0.77080680  0.09242794  0.95732063     0.11700
H1808       H  0.75191370  0.11192882  0.92125043     0.10900
H1809       H  0.72282996  0.09934232  0.88662623     0.16300
H1810       H  0.67542905  0.99609432  0.87506157     0.12200
H1811       H  0.72499234  0.45081558  0.97690098     0.15100
H1812       H  0.77494393  0.04547889  0.98527025     0.14800
C1813       C  0.80022014  0.36412704  0.94570702    -0.18000
C1814       C  0.81032244  0.35341070  0.92489746    -0.20200
C1815       C  0.83136466  0.37579853  0.91194442     0.20400
C1816       C  0.84235422  0.40932181  0.92005606    -0.03100
C1817       C  0.83198677  0.42023809  0.94100220    -0.06200
C1818       C  0.81083666  0.39747272  0.95390175     0.20700
C1819       C  0.84248699  0.45404643  0.94893775     0.18900
C1820       C  0.86349770  0.47646053  0.93601363    -0.17700
C1821       C  0.87405512  0.46548667  0.91535457    -0.19900
C1822       C  0.86359636  0.43201981  0.90722366     0.20400
C1823       C  0.87404231  0.42086620  0.88650216    -0.32900
C1824       C  0.86328495  0.38742953  0.87825045     0.01100
C1825       C  0.84169177  0.36517565  0.89107093    -0.24200
C1826       C  0.80015693  0.40878247  0.97457016    -0.28800
C1827       C  0.80985430  0.44273921  0.98224457     0.06700
C1828       C  0.83129625  0.46508231  0.96950453    -0.27500
H1829       H  0.78389517  0.34638719  0.95535404     0.11500
H1830       H  0.80166782  0.32758461  0.91892745     0.12600
H1831       H  0.87170343  0.50251123  0.94186635     0.11700
H1832       H  0.89031252  0.48326433  0.90569230     0.10900
H1833       H  0.89049750  0.43836667  0.87677027     0.16300
H1834       H  0.83336031  0.33931265  0.88496776     0.12200
H1835       H  0.78331151  0.39180332  0.98440234     0.15100
H1836       H  0.83861001  0.49133354  0.97551280     0.14800
C1837       C  0.62645725  0.20697801  0.63002847    -0.18000
C1838       C  0.61096475  0.22118043  0.61133712    -0.20200
C1839       C  0.59483377  0.19856490  0.59610134     0.20400
C1840       C  0.59444342  0.16124851  0.59968187    -0.03100
C1841       C  0.60988651  0.14692494  0.61862736    -0.06200
C1842       C  0.62594096  0.16994739  0.63385213     0.20700
C1843       C  0.60879457  0.10968413  0.62247700     0.18900
C1844       C  0.59316002  0.08703871  0.60705192    -0.17700
C1845       C  0.57826444  0.10118756  0.58814122    -0.19900
C1846       C  0.57848996  0.13824007  0.58439076     0.20400
C1847       C  0.56303687  0.15272327  0.56566098    -0.32900
C1848       C  0.56309197  0.18989596  0.56209061     0.01100
C1849       C  0.57923588  0.21261565  0.57732125    -0.24200
C1850       C  0.64042469  0.15564522  0.65287891    -0.28800
C1851       C  0.63821896  0.11872943  0.65725316     0.06700
C1852       C  0.62264582  0.09585509  0.64187294    -0.27500
H1853       H  0.63858509  0.22502740  0.64160533     0.11500
H1854       H  0.61151313  0.24986382  0.60882447     0.12600
H1855       H  0.59224879  0.05839503  0.60967964     0.11700
H1856       H  0.56625719  0.08313188  0.57652056     0.10900
H1857       H  0.55082579  0.13513963  0.55383824     0.16300
H1858       H  0.58022147  0.24115933  0.57432643     0.12200
H1859       H  0.65196124  0.17355865  0.66476845     0.15100
H1860       H  0.62090090  0.06741496  0.64515155     0.14800
C1861       C  0.92327347  0.23705624  0.62209958    -0.18000
C1862       C  0.93942652  0.22221945  0.60375410    -0.20200
C1863       C  0.96520818  0.24151375  0.59225978     0.20400
C1864       C  0.97456537  0.27625154  0.59927001    -0.03100
C1865       C  0.95854560  0.29105844  0.61795171    -0.06200
C1866       C  0.93282809  0.27133053  0.62943344     0.20700
C1867       C  0.96862383  0.32537558  0.62528240     0.18900
C1868       C  0.99401659  0.34489104  0.61360470    -0.17700
C1869       C  0.00945026  0.33049416  0.59492741    -0.19900
C1870       C  0.00004644  0.29618039  0.58767496     0.20400
C1871       C  0.01557189  0.28149197  0.56901789    -0.32900
C1872       C  0.50667138  0.24679535  0.56210827     0.01100
C1873       C  0.98164092  0.22683654  0.57383410    -0.24200
C1874       C  0.91782273  0.28579688  0.64834841    -0.28800
C1875       C  0.92874645  0.31945663  0.65632983     0.06700
C1876       C  0.95379191  0.33927191  0.64440672    -0.27500
H1877       H  0.90357060  0.22150299  0.63071686     0.11500
H1878       H  0.93176852  0.19562130  0.59856804     0.12600
H1879       H  0.00206139  0.37127292  0.61897010     0.11700
H1880       H  0.02897844  0.34614430  0.58622529     0.10900
H1881       H  0.03477496  0.29689126  0.55986807     0.16300
H1882       H  0.47451704  0.20022900  0.56832738     0.12200
H1883       H  0.89869059  0.27006607  0.65732476     0.15100
H1884       H  0.96235873  0.36522191  0.65024619     0.14800
C1885       C  0.54743926  0.32397818  0.91667128    -0.18000
C1886       C  0.53351987  0.30901955  0.93557925    -0.20200
C1887       C  0.55436013  0.28645905  0.94851265     0.20400
C1888       C  0.58968946  0.27906260  0.94243497    -0.03100
C1889       C  0.60364529  0.29393151  0.92322734    -0.06200
C1890       C  0.58236708  0.31645716  0.91030691     0.20700
C1891       C  0.63866130  0.28588178  0.91681778     0.18900
C1892       C  0.65961507  0.26359972  0.92990913    -0.17700
C1893       C  0.64593470  0.24920668  0.94909214    -0.19900
C1894       C  0.61097458  0.25662332  0.95545351     0.20400
C1895       C  0.59681545  0.24193455  0.97451407    -0.32900
C1896       C  0.56149709  0.24886270  0.98040014     0.01100
C1897       C  0.54045151  0.27111753  0.96737842    -0.24200
C1898       C  0.59605499  0.33043786  0.89099369    -0.28800
C1899       C  0.63054745  0.32165586  0.88405957     0.06700
C1900       C  0.65183514  0.29965086  0.89723753    -0.27500
H1901       H  0.53073943  0.34118156  0.90690008     0.11500
H1902       H  0.50639991  0.31502076  0.94005855     0.12600
H1903       H  0.68655721  0.25716411  0.92525932     0.11700
H1904       H  0.66263867  0.23203339  0.95887806     0.10900
H1905       H  0.61296753  0.22471080  0.98462823     0.16300
H1906       H  0.51329921  0.27659810  0.97208234     0.12200
H1907       H  0.57920310  0.34704895  0.88093864     0.15100
H1908       H  0.67842579  0.29273078  0.89208539     0.14800
C1909       C  0.52181500  0.12942771  0.91165397    -0.18000
C1910       C  0.53542948  0.14448232  0.93065597    -0.20200
C1911       C  0.51299433  0.16252011  0.94511910     0.20400
C1912       C  0.97658165  0.16587555  0.94023329    -0.03100
C1913       C  0.96288797  0.15089140  0.92097935    -0.06200
C1914       C  0.98558472  0.13229024  0.90674828     0.20700
C1915       C  0.92653949  0.15456486  0.91597282     0.18900
C1916       C  0.90422752  0.17307081  0.93029301    -0.17700
C1917       C  0.91771217  0.18756363  0.94949313    -0.19900
C1918       C  0.95377762  0.18402832  0.95463937     0.20400
C1919       C  0.96741100  0.19814944  0.97397045    -0.32900
C1920       C  0.00357418  0.19470476  0.97897919     0.01100
C1921       C  0.52624948  0.17695545  0.96446312    -0.24200
C1922       C  0.97174152  0.11724997  0.88774464    -0.28800
C1923       C  0.93563387  0.12123118  0.88244808     0.06700
C1924       C  0.91320523  0.13996155  0.89666313    -0.27500
H1925       H  0.53965103  0.11549256  0.90078840     0.11500
H1926       H  0.56346488  0.14182674  0.93410676     0.12600
H1927       H  0.87629962  0.17622431  0.92668063     0.11700
H1928       H  0.89988783  0.20154180  0.96034345     0.10900
H1929       H  0.94997186  0.21196562  0.98514526     0.16300
H1930       H  0.55407524  0.17391453  0.96843833     0.12200
H1931       H  0.98941819  0.10345047  0.87670864     0.15100
H1932       H  0.88542902  0.14329621  0.89264024     0.14800
C1933       C  0.78881614  0.06082219  0.62623849    -0.18000
C1934       C  0.77766623  0.04868255  0.60590972    -0.20200
C1935       C  0.80010973  0.02745438  0.59312154     0.20400
C1936       C  0.83401371  0.01809599  0.60095538    -0.03100
C1937       C  0.84506902  0.02995631  0.62159610    -0.06200
C1938       C  0.82246567  0.05166390  0.63422037     0.20700
C1939       C  0.87869132  0.02004095  0.62959204     0.18900
C1940       C  0.90144383  0.49591688  0.61942678    -0.17700
C1941       C  0.89135417  0.48373862  0.59893139    -0.19900
C1942       C  0.85879595  0.49416221  0.58996387     0.20400
C1943       C  0.84821041  0.48163062  0.56956696    -0.32900
C1944       C  0.81494025  0.49101152  0.56118835     0.01100
C1945       C  0.78909079  0.01497727  0.57278522    -0.24200
C1946       C  0.83388779  0.06380601  0.65458617    -0.31200
C1947       C  0.86741791  0.05407024  0.66269610     0.06700
C1948       C  0.88951316  0.03191557  0.65010389    -0.27500
H1949       H  0.77105387  0.07731400  0.63575341     0.11500
H1950       H  0.75149431  0.05594794  0.60017220     0.12600
H1951       H  0.92666860  0.48739243  0.62604789     0.11700
H1952       H  0.90894931  0.46601277  0.59013743     0.10900
H1953       H  0.86512909  0.46351384  0.56054746     0.16300
H1954       H  0.76277204  0.02137278  0.56687720     0.12200
H1955       H  0.81652266  0.08061258  0.66418363     0.15100
H1956       H  0.91543387  0.02428463  0.65611046     0.14800
C1957       C  0.78107942  0.38480632  0.63360253    -0.18000
C1958       C  0.79335877  0.39455560  0.61309798    -0.20200
C1959       C  0.77030088  0.41020695  0.59800066     0.20400
C1960       C  0.73467449  0.41673246  0.60370787    -0.03100
C1961       C  0.72234582  0.40714446  0.62448861    -0.06200
C1962       C  0.74559777  0.39070693  0.63938332     0.20700
C1963       C  0.68674956  0.41367965  0.63027751     0.18900
C1964       C  0.66385857  0.42987933  0.61525328    -0.17700
C1965       C  0.67603653  0.43922107  0.59460395    -0.19900
C1966       C  0.71134600  0.43268316  0.58863658     0.20400
C1967       C  0.72390439  0.44214356  0.56800030    -0.32900
C1968       C  0.75950050  0.43612488  0.56240273     0.01100
C1969       C  0.78234927  0.41964195  0.57734992    -0.24200
C1970       C  0.73289413  0.38002341  0.65969200    -0.28800
C1971       C  0.69734761  0.38593801  0.66551485     0.06700
C1972       C  0.67456656  0.40338903  0.65084472    -0.27500
H1973       H  0.79931943  0.37243806  0.64491048     0.11500
H1974       H  0.82085368  0.38967325  0.60900171     0.12600
H1975       H  0.63645594  0.43510240  0.61942218     0.11700
H1976       H  0.65779971  0.45156277  0.58328541     0.10900
H1977       H  0.70636019  0.45506601  0.55649710     0.16300
H1978       H  0.80971757  0.41470287  0.57293714     0.12200
H1979       H  0.75073142  0.36699532  0.67098024     0.15100
H1980       H  0.64710905  0.40801120  0.65517648     0.14800
C1981       C  0.67745077  0.48627268  0.12423559    -0.18000
C1982       C  0.69411574  0.47202810  0.10596536    -0.20200
C1983       C  0.71698710  0.49321186  0.09349744     0.20400
C1984       C  0.71729741  0.02861587  0.09784749    -0.03100
C1985       C  0.70196588  0.04483921  0.11627367    -0.06200
C1986       C  0.67023431  0.03108784  0.12504785     0.20700
C1987       C  0.71890782  0.07419690  0.12623382     0.18900
C1988       C  0.75052371  0.08762348  0.11742837    -0.17700
C1989       C  0.76578111  0.07149104  0.09924823    -0.19900
C1990       C  0.74962636  0.04174723  0.08950173     0.20400
C1991       C  0.76525690  0.02485332  0.07160711    -0.32900
C1992       C  0.75621940  0.50044075  0.06253752     0.01100
C1993       C  0.73396407  0.47896708  0.07525266    -0.24200
C1994       C  0.65657937  0.04569826  0.14429258    -0.28800
C1995       C  0.67433006  0.07381578  0.15498114     0.06700
C1996       C  0.70479134  0.08872341  0.14531519    -0.27500
H1997       H  0.66013291  0.46925228  0.13370112     0.11500
H1998       H  0.68921597  0.44436360  0.10163184     0.12600
H1999       H  0.76382480  0.11021393  0.12485133     0.11700
H2000       H  0.79045108  0.08206043  0.09294423     0.10900
H2001       H  0.79001223  0.03487392  0.06506391     0.16300
H2002       H  0.72933354  0.45136253  0.07061451     0.12200
H2003       H  0.63297555  0.03409856  0.15140901     0.15100
H2004       H  0.71872653  0.11047855  0.15321179     0.14800
C2005       C  0.54470890  0.11854199  0.44225463    -0.18000
C2006       C  0.55532224  0.10736894  0.42163045    -0.20200
C2007       C  0.58075013  0.12686560  0.40996923     0.20400
C2008       C  0.59590803  0.15777064  0.41925899    -0.03100
C2009       C  0.58543155  0.16888398  0.44019132    -0.06200
C2010       C  0.55951826  0.14928530  0.45167157     0.20700
C2011       C  0.60071145  0.19970411  0.44955956     0.18900
C2012       C  0.62603866  0.21926716  0.43786188    -0.17700
C2013       C  0.63624440  0.20837610  0.41707810    -0.19900
C2014       C  0.62141689  0.17761240  0.40762974     0.20400
C2015       C  0.63165078  0.16634369  0.38680001    -0.32900
C2016       C  0.61669893  0.13542492  0.37738590     0.01100
C2017       C  0.59120061  0.11595368  0.38918802    -0.24200
C2018       C  0.54851202  0.16106980  0.47220307    -0.28800
C2019       C  0.56338886  0.19191929  0.48147182     0.06700
C2020       C  0.58999678  0.21065678  0.47030637    -0.27500
H2021       H  0.02483846  0.10317162  0.45082589     0.11500
H2022       H  0.54346008  0.08352689  0.41473738     0.12600
H2023       H  0.63785677  0.24313275  0.44475430     0.11700
H2024       H  0.65578365  0.22401787  0.40839547     0.10900
H2025       H  0.65125386  0.18167049  0.37795645     0.16300
H2026       H  0.57949751  0.09204101  0.38227688     0.12200
H2027       H  0.52792433  0.14673582  0.48083255     0.15100
H2028       H  0.60158722  0.23434395  0.47757204     0.14800
C2029       C  0.91120212  0.00422776  0.42944617    -0.18000
C2030       C  0.89798292  0.98970079  0.44873486    -0.20200
C2031       C  0.86246380  0.99503673  0.45470965     0.20400
C2032       C  0.84004291  0.01523544  0.44107754    -0.03100
C2033       C  0.85353507  0.03035505  0.42178958    -0.06200
C2034       C  0.88923524  0.02467585  0.41586387     0.20700
C2035       C  0.83121608  0.05106346  0.40841851     0.18900
C2036       C  0.79560493  0.05609267  0.41424433    -0.17700
C2037       C  0.78215748  0.04082697  0.43319520    -0.19900
C2038       C  0.80415811  0.02048155  0.44674661     0.20400
C2039       C  0.79096428  0.00561527  0.46595908    -0.32900
C2040       C  0.81616419  0.48735718  0.48114297     0.01100
C2041       C  0.85138543  0.48115356  0.47482286    -0.24200
C2042       C  0.90218586  0.03925559  0.39639147    -0.28800
C2043       C  0.88003718  0.06000277  0.38295095     0.06700
C2044       C  0.84468846  0.06603291  0.38930533    -0.27500
H2045       H  0.93866292  0.99955122  0.42518221     0.11500
H2046       H  0.91686384  0.47261954  0.45848373     0.12600
H2047       H  0.77807442  0.07178040  0.40408784     0.11700
H2048       H  0.75456730  0.04508789  0.43731039     0.10900
H2049       H  0.76351579  0.00989158  0.47046431     0.16300
H2050       H  0.86825544  0.46439280  0.48478775     0.12200
H2051       H  0.92940997  0.03432806  0.39165531     0.15100
H2052       H  0.82715960  0.08146261  0.37899533     0.14800
C2053       C  0.52486320  0.29959679  0.10797788    -0.18000
C2054       C  0.53649691  0.31023009  0.12851643    -0.20200
C2055       C  0.57022931  0.30025579  0.13602307     0.20400
C2056       C  0.59254671  0.27956157  0.12263041    -0.03100
C2057       C  0.58098490  0.26919272  0.10180295    -0.06200
C2058       C  0.54688182  0.27906433  0.09452129     0.20700
C2059       C  0.60346693  0.24871957  0.08834789     0.18900
C2060       C  0.63713701  0.23872436  0.09585097    -0.17700
C2061       C  0.64846215  0.24874901  0.11654336    -0.19900
C2062       C  0.62637242  0.26910126  0.13005992     0.20400
C2063       C  0.63759049  0.27917660  0.15084934    -0.32900
C2064       C  0.61567760  0.30004396  0.16429468     0.01100
C2065       C  0.58201245  0.31054233  0.15668133    -0.24200
C2066       C  0.53530669  0.26787867  0.07402418    -0.28800
C2067       C  0.55752866  0.24727991  0.06068159     0.06700
C2068       C  0.59169057  0.23819720  0.06776693    -0.27500
H2069       H  0.99862911  0.30741548  0.10262022     0.11500
H2070       H  0.51900979  0.32610814  0.13858654     0.12600
H2071       H  0.65467020  0.22295078  0.08574955     0.11700
H2072       H  0.67453119  0.24055879  0.12198612     0.10900
H2073       H  0.66364588  0.27114657  0.15642551     0.16300
H2074       H  0.56480897  0.32651761  0.16688590     0.12200
H2075       H  0.50889641  0.27475930  0.06847703     0.15100
H2076       H  0.60858581  0.22199547  0.05748674     0.14800
C2077       C  0.02566379  0.12757044  0.12609685    -0.18000
C2078       C  0.53661069  0.13962884  0.10576870    -0.20200
C2079       C  0.01352680  0.15954036  0.09266804     0.20400
C2080       C  0.97905912  0.16753731  0.10008830    -0.03100
C2081       C  0.96809673  0.15557593  0.12070539    -0.06200
C2082       C  0.99149458  0.13536457  0.13370682     0.20700
C2083       C  0.93384122  0.16392344  0.12832219     0.18900
C2084       C  0.91077928  0.18393907  0.11519019    -0.17700
C2085       C  0.92158586  0.19566109  0.09469483    -0.19900
C2086       C  0.95569399  0.18768440  0.08699490     0.20400
C2087       C  0.96714540  0.19996220  0.06664539    -0.32900
C2088       C  0.00175324  0.19266602  0.05950142     0.01100
C2089       C  0.52453949  0.17203630  0.07241874    -0.24200
C2090       C  0.98040254  0.12330096  0.15409862    -0.28800
C2091       C  0.94635342  0.13153469  0.16188807     0.06700
C2092       C  0.92328208  0.15206823  0.14890736    -0.27500
H2093       H  0.04398125  0.11220217  0.13590189     0.11500
H2094       H  0.56319974  0.13342378  0.10029970     0.12600
H2095       H  0.88435884  0.19056064  0.12078147     0.11700
H2096       H  0.90332607  0.21114013  0.08491600     0.10900
H2097       H  0.94970196  0.21609080  0.05667884     0.16300
H2098       H  0.55119858  0.16641052  0.06680182     0.12200
H2099       H  0.99846551  0.10776886  0.16399985     0.15100
H2100       H  0.89690731  0.15846421  0.15469303     0.14800
C2101       C  0.67284839  0.42909907  0.45247203    -0.18000
C2102       C  0.65869399  0.41548712  0.43321030    -0.20200
C2103       C  0.67992985  0.39556052  0.41897433     0.20400
C2104       C  0.71571672  0.38889959  0.42437371    -0.03100
C2105       C  0.73014274  0.40303295  0.44368369    -0.06200
C2106       C  0.70856049  0.42327102  0.45777072     0.20700
C2107       C  0.76618648  0.39717549  0.44878953     0.18900
C2108       C  0.78726520  0.37665582  0.43478348    -0.17700
C2109       C  0.77287969  0.36236558  0.41576417    -0.19900
C2110       C  0.73723079  0.36855304  0.41034711     0.20400
C2111       C  0.72294731  0.35537371  0.39093994    -0.32900
C2112       C  0.68758800  0.36286433  0.38503661     0.01100
C2113       C  0.66617975  0.38274569  0.39928314    -0.24200
C2114       C  0.72311327  0.43747809  0.47682968    -0.28800
C2115       C  0.75906156  0.43222449  0.48179981     0.06700
C2116       C  0.78047435  0.41201172  0.46776767    -0.27500
H2117       H  0.65591465  0.44450563  0.46314150     0.11500
H2118       H  0.63114935  0.42073084  0.42938478     0.12600
H2119       H  0.81492134  0.37177051  0.43849570     0.11700
H2120       H  0.78976469  0.34677789  0.40516116     0.10900
H2121       H  0.73987249  0.34036116  0.38005200     0.16300
H2122       H  0.63893301  0.38855127  0.39494821     0.12200
H2123       H  0.70666798  0.45306123  0.48771108     0.15100
H2124       H  0.80813019  0.40765742  0.47177082     0.14800
C2125       C  0.81505689  0.35327221  0.09159699    -0.18000
C2126       C  0.82948619  0.33898547  0.11062756    -0.20200
C2127       C  0.84920393  0.36065427  0.12478296     0.20400
C2128       C  0.85455624  0.39707049  0.11960476    -0.03100
C2129       C  0.83953325  0.41162327  0.10058396    -0.06200
C2130       C  0.81976846  0.38958157  0.08647713     0.20700
C2131       C  0.84425113  0.44825192  0.09572724     0.18900
C2132       C  0.86425880  0.46984790  0.10972321    -0.17700
C2133       C  0.87942881  0.45536268  0.12842065    -0.19900
C2134       C  0.87464855  0.41907695  0.13352389     0.20400
C2135       C  0.88913582  0.40463873  0.15250189    -0.32900
C2136       C  0.88317972  0.36862366  0.15815987     0.01100
C2137       C  0.86325046  0.34673963  0.14414005    -0.24200
C2138       C  0.80512906  0.40427619  0.06753260    -0.28800
C2139       C  0.80949857  0.44082237  0.06275577     0.06700
C2140       C  0.82903396  0.46261990  0.07692669    -0.27500
H2141       H  0.79999312  0.33595332  0.08094567     0.11500
H2142       H  0.82517397  0.31096481  0.11428927     0.12600
H2143       H  0.86819092  0.49797938  0.10620364     0.11700
H2144       H  0.89471576  0.47262969  0.13898576     0.10900
H2145       H  0.90400732  0.42192745  0.16328630     0.16300
H2146       H  0.85850389  0.31899309  0.14836079     0.12200
H2147       H  0.79014827  0.38744397  0.05653758     0.15100
H2148       H  0.83285569  0.49066591  0.07306589     0.14800
C2149       C  0.91831749  0.24595432  0.42573252    -0.18000
C2150       C  0.93001277  0.23598862  0.44637165    -0.20200
C2151       C  0.96321681  0.24729560  0.45400795     0.20400
C2152       C  0.98481198  0.26901411  0.44075209    -0.03100
C2153       C  0.97312098  0.27883994  0.41987763    -0.06200
C2154       C  0.93971472  0.26724980  0.41232929     0.20700
C2155       C  0.99491130  0.30019921  0.40656670     0.18900
C2156       C  0.52814265  0.31146601  0.41418625    -0.17700
C2157       C  0.53965706  0.30187915  0.43489873    -0.19900
C2158       C  0.51818490  0.28072705  0.44829452     0.20400
C2159       C  0.52974884  0.27058477  0.46895117    -0.32900
C2160       C  0.50895388  0.24789275  0.48181696     0.01100
C2161       C  0.97552948  0.23677585  0.47447682    -0.24200
C2162       C  0.92826624  0.27724331  0.39155612    -0.28800
C2163       C  0.94970852  0.29887257  0.37825226     0.06700
C2164       C  0.98306919  0.31006567  0.38590760    -0.27500
H2165       H  0.89257459  0.23687656  0.42021543     0.11500
H2166       H  0.91311678  0.21932654  0.45634220     0.12600
H2167       H  0.54523068  0.32778333  0.40412808     0.11700
H2168       H  0.56544562  0.31086053  0.44040180     0.10900
H2169       H  0.55532036  0.27952120  0.47484807     0.16300
H2170       H  0.95960226  0.21922524  0.48450700     0.12200
H2171       H  0.90245815  0.26857421  0.38588879     0.15100
H2172       H  0.99993361  0.32651678  0.37577851     0.14800
C2173       C  0.93986441  0.80890562  0.35493888     0.80000
N2174       N  0.95538654  0.83722152  0.34479069    -0.78300
C2175       C  0.94343420  0.84833802  0.32514117     0.82500
N2176       N  0.91569180  0.83128748  0.31569847    -0.78200
C2177       C  0.90022980  0.80297698  0.32563297     0.82600
N2178       N  0.91236343  0.79187660  0.34515957    -0.80000
C2179       C  0.89588515  0.85052713  0.17846141     0.80000
N2180       N  0.92286723  0.86879675  0.18819409    -0.78300
C2181       C  0.93186790  0.86178123  0.20907051     0.82500
N2182       N  0.91337749  0.83691177  0.22035260    -0.78200
C2183       C  0.88750757  0.81751457  0.21062706     0.82600
N2184       N  0.87848178  0.82468984  0.18980055    -0.80000
C2185       C  0.67292813  0.85212837  0.36209860     0.80000
N2186       N  0.69077495  0.82659789  0.35083300    -0.78300
C2187       C  0.68378937  0.82078383  0.32960709     0.82500
N2188       N  0.65914807  0.84106899  0.31935612    -0.78200
C2189       C  0.63994472  0.86560710  0.33056056     0.82600
N2190       N  0.64704487  0.87132374  0.35191289    -0.80000
C2191       C  0.93385190  0.61506038  0.18371745     0.80000
N2192       N  0.95139431  0.58840089  0.19414487    -0.78300
C2193       C  0.94063649  0.57719905  0.21400714     0.82500
N2194       N  0.91220918  0.59287927  0.22363629    -0.78200
C2195       C  0.89487428  0.61992976  0.21346788     0.82600
N2196       N  0.90572145  0.63079891  0.19357538    -0.80000
C2197       C  0.95961331  0.87919908  0.31427698     0.42300
N2198       N  0.49286335  0.92427193  0.30771089     0.01100
C2199       C  0.49231148  0.53111239  0.21750079    -0.06700
H2200       H  0.50333704  0.89835313  0.19822872     0.06600
C2201       C  0.62293715  0.90120448  0.24462883    -0.07100
Co2202     Co  0.96943084  0.96409020  0.26784713     0.74200
N2203       N  0.49690611  0.92676962  0.22851377    -0.26300
Co2204     Co  0.53667073  0.96572399  0.22975043     0.74100
C2205       C  0.61130327  0.88366939  0.22478874     0.42400
N2206       N  0.59729524  0.92804634  0.29586640     0.00800
N2207       N  0.57633040  0.92715111  0.23160700     0.00900
N2208       N  0.94871413  0.53077839  0.24274176    -0.47100
H2209       H  0.92510758  0.88993317  0.28422378     0.06600
N2210       N  0.97215026  0.92562545  0.24355948     0.01100
N2211       N  0.57710185  0.50350276  0.23315856     0.00900
C2212       C  0.61493538  0.54398810  0.22475074     0.42500
N2213       N  0.57237331  0.92781484  0.31084402    -0.25700
C2214       C  0.94401035  0.52886811  0.29780905    -0.06600
N2215       N  0.48774579  0.89786110  0.32168407    -0.46800
N2216       N  0.58569804  0.52662406  0.21771622    -0.47000
C2217       C  0.95264817  0.54367207  0.31888885     0.42300
N2218       N  0.97219067  0.50502910  0.24628649     0.01100
N2219       N  0.57005113  0.50411042  0.31244149    -0.25700
N2220       N  0.96951955  0.92424193  0.29172811    -0.26200
N2221       N  0.59560667  0.50459826  0.29780327     0.00800
H2222       H  0.55889280  0.53695027  0.34037819     0.06700
H2223       H  0.64756264  0.53386762  0.25557709     0.06700
N2224       N  0.49782635  0.50470658  0.23173198    -0.26300
N2225       N  0.59970199  0.92785715  0.24756652    -0.25900
N2226       N  0.49062720  0.50308837  0.31097246     0.01100
C2227       C  0.95642957  0.88530079  0.22079749     0.42500
C2228       C  0.58145956  0.90401704  0.32621951    -0.07100
N2229       N  0.59978234  0.50379002  0.24942981    -0.25900
H2230       H  0.64544480  0.89530722  0.25487736     0.06700
N2231       N  0.94750733  0.90133988  0.23953816    -0.47100
H2232       H  0.56719245  0.89919300  0.34111134     0.06700
C2233       C  0.60719885  0.54863944  0.31877916     0.42400
C2234       C  0.94740263  0.89654283  0.29448960    -0.06600
Co2235     Co  0.53071949  0.96473653  0.30984912     0.73800
N2236       N  0.62323956  0.90517305  0.30001719    -0.46800
C2237       C  0.95988780  0.54830733  0.22489946     0.42600
N2238       N  0.48147719  0.52607988  0.32640884    -0.46800
Co2239     Co  0.59803933  0.96704504  0.27172696     0.73900
C2240       C  0.62437718  0.52891245  0.24571116    -0.07200
C2241       C  0.48895793  0.90246721  0.21316173    -0.06700
N2242       N  0.96847282  0.50365704  0.29443911    -0.26200
N2243       N  0.58239232  0.90113820  0.21750891    -0.47000
H2244       H  0.50837214  0.53674041  0.20341274     0.06600
C2245       C  0.57520975  0.53096588  0.32645232    -0.07100
Cl2246     Cl  0.53372050  0.96535115  0.26979448    -0.50100
C2247       C  0.61500358  0.88876779  0.31878015     0.42400
H2248       H  0.92112895  0.53381799  0.28768206     0.06600
N2249       N  0.61852046  0.53095743  0.30102073    -0.46800
C2250       C  0.63159735  0.81237276  0.18499112     0.80000
N2251       N  0.61552733  0.84051566  0.19497093    -0.78300
C2252       C  0.62822508  0.85326115  0.21403057     0.82500
N2253       N  0.65698541  0.83781104  0.22320485    -0.78200
C2254       C  0.67312870  0.80965740  0.21355335     0.82600
N2255       N  0.66051753  0.79699059  0.19440516    -0.80000
C2256       C  0.89336406  0.57510796  0.36273602     0.80000
N2257       N  0.87449889  0.60060768  0.35191019    -0.78300
C2258       C  0.88240521  0.60866688  0.33103173     0.82500
N2259       N  0.90858025  0.59059371  0.32081977    -0.78200
C2260       C  0.92832258  0.56602218  0.33150204     0.82600
N2261       N  0.92049385  0.55800671  0.35241864    -0.80000
C2262       C  0.63153347  0.61954812  0.35786891     0.80000
N2263       N  0.65842771  0.63617265  0.34709389    -0.78300
C2264       C  0.66887436  0.62411247  0.32728585     0.82500
N2265       N  0.65230347  0.59556041  0.31824144    -0.78200
C2266       C  0.62525127  0.57920421  0.32871132     0.82600
N2267       N  0.61505414  0.59114335  0.34848419    -0.80000
C2268       C  0.66583250  0.58180796  0.17871280     0.80000
N2269       N  0.68439557  0.60809019  0.18896065    -0.78300
C2270       C  0.67982983  0.61396618  0.21046997     0.82500
N2271       N  0.65707152  0.59315985  0.22185380    -0.78200
C2272       C  0.63732866  0.56789529  0.21173858     0.82600
N2273       N  0.64203925  0.56197602  0.19022735    -0.80000
C2274       C  0.86537571  0.79384802  0.22381244     0.42300
N2275       N  0.82372006  0.75706024  0.23164701     0.01100
C2276       C  0.72154016  0.76247866  0.32522140    -0.06700
H2277       H  0.85674026  0.73715548  0.33757926     0.06600
C2278       C  0.84446621  0.62258417  0.29717077    -0.07100
Co2279     Co  0.78558304  0.77990507  0.27167106     0.74200
N2280       N  0.82321714  0.75037881  0.31039504    -0.26300
Co2281     Co  0.78306938  0.71240500  0.31024468     0.74100
C2282       C  0.85921216  0.63186000  0.31818579     0.42400
N2283       N  0.82195711  0.65125525  0.24500536     0.00800
N2284       N  0.81988879  0.67064939  0.30963939     0.00900
N2285       N  0.72293688  0.80465949  0.29901604    -0.47100
H2286       H  0.85537417  0.82714993  0.25444024     0.06600
N2287       N  0.82427965  0.77613643  0.29577283     0.01100
N2288       N  0.74300380  0.67435196  0.30858366     0.00900
C2289       C  0.69852884  0.64093541  0.31574082     0.42500
N2290       N  0.82224397  0.67710770  0.23041197    -0.25700
C2291       C  0.72094216  0.80516696  0.24403126    -0.06600
N2292       N  0.84728373  0.76506064  0.21645961    -0.46800
N2293       N  0.71712922  0.66947473  0.32278836    -0.47000
C2294       C  0.70384405  0.79321363  0.22413042     0.42300
N2295       N  0.74659153  0.77914640  0.29544402     0.01100
N2296       N  0.74566640  0.67784563  0.22948281    -0.25700
N2297       N  0.82431055  0.77996443  0.24788895    -0.26200
N2298       N  0.74429142  0.65294761  0.24460162     0.00800
H2299       H  0.71694873  0.68511477  0.19950065     0.06700
H2300       H  0.70879718  0.60537425  0.28592436     0.06700
N2301       N  0.74629392  0.75410111  0.31048528    -0.26300
N2302       N  0.82004231  0.64775435  0.29337102    -0.25900
N2303       N  0.74661963  0.75779948  0.23148797     0.01100
C2304       C  0.86952049  0.78545347  0.31583280     0.42500
C2305       C  0.84855285  0.67121908  0.21638217    -0.07100
N2306       N  0.74278939  0.65047398  0.29279639    -0.25900
H2307       H  0.84917666  0.59914774  0.28729891     0.06700
N2308       N  0.85167117  0.79785788  0.29847029    -0.47100
H2309       H  0.85477383  0.68755605  0.20244660     0.06700
C2310       C  0.70356168  0.63810570  0.22220177     0.42400
C2311       C  0.85012725  0.80385134  0.24454456    -0.06600
Co2312     Co  0.78455053  0.71748502  0.23031576     0.73800
N2313       N  0.84740821  0.62731655  0.24169215    -0.46800
C2314       C  0.70573233  0.79565491  0.31732922     0.42600
N2315       N  0.72109975  0.76377369  0.21717879    -0.46800
Co2316     Co  0.78231480  0.64991721  0.26889674     0.73900
C2317       C  0.71539551  0.62820777  0.29591105    -0.07200
C2318       C  0.85076693  0.75413228  0.32388113    -0.06700
N2319       N  0.74715945  0.78161774  0.24729715    -0.26200
N2320       N  0.84242224  0.66159747  0.32522334    -0.47000
H2321       H  0.71618127  0.74785826  0.33996308     0.06600
C2322       C  0.72110420  0.67044030  0.21437093    -0.07100
Cl2323     Cl  0.78385906  0.71488610  0.27027451    -0.50100
C2324       C  0.86513483  0.63839844  0.22389717     0.42400
H2325       H  0.71499158  0.82804034  0.25413092     0.06600
N2326       N  0.71957964  0.62865169  0.24081958    -0.46800
C2327       C  0.79923695  0.97213430  0.50057033     0.02100
C2328       C  0.77089468  0.94728174  0.50132318     0.02000
C2329       C  0.75655745  0.93743485  0.52145840    -0.18500
C2330       C  0.77007816  0.95167805  0.54078143     0.02100
C2331       C  0.79804382  0.97674504  0.54002497     0.02000
C2332       C  0.81268573  0.98635832  0.51998547    -0.18500
H2333       H  0.83750042  0.50469192  0.52097296     0.04100
H2334       H  0.73524061  0.91800224  0.52211858     0.04100
C2335       C  0.51567555  0.70633072  0.03991604     0.02100
C2336       C  0.54374614  0.73129752  0.04024174     0.02000
C2337       C  0.55832475  0.74336641  0.02068449    -0.18500
C2338       C  0.54485827  0.73155447  0.00072353     0.02100
C2339       C  0.51601682  0.70727755  0.00035501     0.02000
C2340       C  0.00168808  0.69504611  0.02001720    -0.18500
H2341       H  0.98029738  0.67566499  0.01983110     0.04100
H2342       H  0.57985551  0.76258649  0.02099773     0.04100
C2343       C  0.54491411  0.70335901  0.50254463     0.02100
C2344       C  0.51970295  0.73132723  0.50188867     0.02000
C2345       C  0.50614542  0.74551882  0.52122114    -0.18500
C2346       C  0.51682432  0.73191384  0.54136712     0.02100
C2347       C  0.54156382  0.70350422  0.54205324     0.02000
C2348       C  0.55519481  0.68937797  0.52266323    -0.18500
H2349       H  0.57472682  0.66810854  0.52327817     0.04100
H2350       H  0.98667305  0.76683867  0.52056133     0.04100
C2351       C  0.79256828  0.95439805  0.04295580     0.02100
C2352       C  0.76451064  0.97950118  0.04208775     0.02000
C2353       C  0.75242405  0.99179252  0.02191388    -0.18500
C2354       C  0.76770131  0.97953192  0.00260361     0.02100
C2355       C  0.79598393  0.95483978  0.00341742     0.02000
C2356       C  0.80802291  0.94236290  0.02354371    -0.18500
H2357       H  0.82960154  0.92321197  0.02410723     0.04100
H2358       H  0.74113899  0.52190644  0.02251856     0.04100
C2359       C  0.87648656  0.87686840  0.85658839     0.80000
N2360       N  0.90379941  0.89376856  0.84650611    -0.78300
C2361       C  0.91573888  0.88204228  0.82702004     0.82500
N2362       N  0.90023303  0.85336021  0.81748154    -0.78200
C2363       C  0.87271506  0.83646852  0.82722353     0.82600
N2364       N  0.86101268  0.84812774  0.84681120    -0.80000
C2365       C  0.91815996  0.60486420  0.86305672     0.80000
N2366       N  0.89195893  0.62348763  0.85282347    -0.78300
C2367       C  0.88493460  0.61727937  0.83155684     0.82500
N2368       N  0.90450352  0.59303498  0.82050000    -0.78200
C2369       C  0.92967516  0.57350136  0.83063814     0.82600
N2370       N  0.93677991  0.57972041  0.85182932    -0.80000
C2371       C  0.68104270  0.56726738  0.85894662     0.80000
N2372       N  0.65396735  0.55082757  0.84819703    -0.78300
C2373       C  0.64437052  0.56209207  0.82804967     0.82500
N2374       N  0.66196158  0.58976530  0.81868163    -0.78200
C2375       C  0.68925197  0.60589975  0.82915094     0.82600
N2376       N  0.69858873  0.59462668  0.84919325    -0.80000
C2377       C  0.64406222  0.83342446  0.86380660     0.80000
N2378       N  0.62452981  0.85786097  0.85257173    -0.78300
C2379       C  0.63068152  0.86372324  0.83120395     0.82500
N2380       N  0.65620709  0.84471323  0.82090527    -0.78200
C2381       C  0.67694546  0.82149811  0.83210072     0.82600
N2382       N  0.67061578  0.81562760  0.85345536    -0.80000
C2383       C  0.64392353  0.60792929  0.67980873     0.80000
N2384       N  0.66905388  0.62654433  0.69104815    -0.78300
C2385       C  0.67591428  0.61845050  0.71211366     0.82500
N2386       N  0.65698887  0.59238915  0.72206244    -0.78200
C2387       C  0.63293504  0.57282371  0.71086612     0.82600
N2388       N  0.62625979  0.58082450  0.68984837    -0.80000
C2389       C  0.87808861  0.56672450  0.68540820     0.80000
N2390       N  0.90628697  0.55121229  0.69523121    -0.78300
C2391       C  0.91762966  0.56256712  0.71485970     0.82500
N2392       N  0.90070694  0.58998733  0.72491370    -0.78200
C2393       C  0.87213334  0.60554309  0.71535163     0.82600
N2394       N  0.86086796  0.59383348  0.69564640    -0.80000
C2395       C  0.85649023  0.80523574  0.81670139     0.42300
N2396       N  0.82292201  0.76022657  0.81040414     0.01100
C2397       C  0.82159726  0.65286827  0.71847545    -0.06700
H2398       H  0.81147043  0.78582793  0.70108084     0.06600
C2399       C  0.69336851  0.78552550  0.74697488    -0.07100
Co2400     Co  0.84552980  0.71997073  0.77054760     0.74200
N2401       N  0.81839157  0.75747324  0.73128273    -0.26300
Co2402     Co  0.77811893  0.71929365  0.73244174     0.74100
C2403       C  0.70543166  0.80265526  0.72710331     0.42400
N2404       N  0.71875188  0.75835226  0.79807954     0.00800
N2405       N  0.73948235  0.75862275  0.73413588     0.00900
N2406       N  0.86561382  0.65343912  0.74347154    -0.47100
H2407       H  0.89066349  0.79389218  0.78661254     0.06600
N2408       N  0.84341203  0.75839927  0.74619194     0.01100
N2409       N  0.73781002  0.68099460  0.73364984     0.00900
C2410       C  0.69948946  0.64100177  0.72521653     0.42500
N2411       N  0.74353501  0.75829933  0.81315246    -0.25700
C2412       C  0.87105397  0.65627737  0.79826320    -0.06600
N2413       N  0.82824023  0.78688748  0.82421290    -0.46800
N2414       N  0.72865416  0.65832396  0.71806196    -0.47000
C2415       C  0.86189128  0.64119869  0.81918744     0.42300
N2416       N  0.84275946  0.67988584  0.74672430     0.01100
N2417       N  0.74536750  0.68067321  0.81294855    -0.25700
N2418       N  0.84618719  0.75987223  0.79440309    -0.26200
N2419       N  0.71990966  0.68004189  0.79823871     0.00800
H2420       H  0.75631124  0.64777568  0.84092168     0.06700
H2421       H  0.66752211  0.65088897  0.75627332     0.06700
N2422       N  0.81689869  0.68003291  0.73228963    -0.26300
N2423       N  0.71606908  0.75846008  0.75003063    -0.25900
N2424       N  0.82466130  0.68237280  0.81139406     0.01100
C2425       C  0.85896352  0.79842904  0.72324778     0.42500
C2426       C  0.73510299  0.78293527  0.82815994    -0.07100
N2427       N  0.71545468  0.68054749  0.75005274    -0.25900
H2428       H  0.67085442  0.79185736  0.75710847     0.06700
N2429       N  0.86826982  0.78238692  0.74194684    -0.47100
H2430       H  0.74940930  0.78789988  0.84303731     0.06700
C2431       C  0.70819323  0.63585977  0.81907530     0.42400
C2432       C  0.86849520  0.78747410  0.79700117    -0.06600
Co2433     Co  0.78420656  0.72043765  0.81247895     0.73800
N2434       N  0.69352724  0.78213373  0.80179899    -0.46800
C2435       C  0.85374153  0.63532109  0.72596312     0.42600
N2436       N  0.83322840  0.65895327  0.82668777    -0.46800
Co2437     Co  0.71697170  0.71928968  0.77416624     0.73900
C2438       C  0.69068188  0.65563364  0.74636959    -0.07200
C2439       C  0.82616150  0.78162807  0.71590000    -0.06700
N2440       N  0.84693239  0.68184343  0.79493379    -0.26200
N2441       N  0.73399148  0.78457326  0.71993245    -0.47000
H2442       H  0.80495187  0.64670852  0.70470893     0.06600
C2443       C  0.74012678  0.65372035  0.82691984    -0.07100
Cl2444     Cl  0.78122248  0.71973749  0.77242241    -0.50100
C2445       C  0.70217299  0.79899817  0.82031331     0.42400
H2446       H  0.89377057  0.65089314  0.78809564     0.06600
N2447       N  0.69705082  0.65361705  0.80133394    -0.46800
C2448       C  0.91677955  0.83155869  0.67917692     0.80000
N2449       N  0.93492387  0.85793708  0.68973474    -0.78300
C2450       C  0.92747266  0.86563075  0.71078518     0.82500
N2451       N  0.90240095  0.84643397  0.72136821    -0.78200
C2452       C  0.88328833  0.82113979  0.71087682     0.82600
N2453       N  0.89074886  0.81349901  0.68988520    -0.80000
C2454       C  0.68415487  0.87198264  0.68618386     0.80000
N2455       N  0.65481237  0.88691796  0.69527928    -0.78300
C2456       C  0.64236972  0.87467069  0.71450616     0.82500
N2457       N  0.65908261  0.84740435  0.72463204    -0.78200
C2458       C  0.68830435  0.83237423  0.71582906     0.82600
N2459       N  0.70089661  0.84464721  0.69661503    -0.80000
C2460       C  0.95046062  0.88940437  0.72347674     0.42300
N2461       N  0.99162961  0.92677287  0.73136607     0.01100
C2462       C  0.59244513  0.92177369  0.82609251    -0.06700
H2463       H  0.95960839  0.94802622  0.83804349     0.06600
C2464       C  0.96827025  0.56075712  0.79691295    -0.07100
Co2465     Co  0.52942347  0.90441112  0.77184850     0.74200
N2466       N  0.99202510  0.93460459  0.81042528    -0.26300
Co2467     Co  0.53232286  0.97230648  0.80991232     0.74100
C2468       C  0.95303674  0.55080653  0.81768005     0.42400
N2469       N  0.99217596  0.53281087  0.74524743     0.00800
N2470       N  0.99385813  0.51343110  0.80960813     0.00900
N2471       N  0.59125387  0.87896094  0.80020572    -0.47100
H2472       H  0.95999499  0.85707822  0.75451015     0.06600
N2473       N  0.99062374  0.90860714  0.79596039     0.01100
N2474       N  0.57089378  0.51080125  0.80895324     0.00900
C2475       C  0.61473445  0.54508286  0.81642710     0.42500
N2476       N  0.99197540  0.50699973  0.73060878    -0.25700
C2477       C  0.59413338  0.87902431  0.74453377    -0.06600
N2478       N  0.96843735  0.91818172  0.71601728    -0.46800
N2479       N  0.59643774  0.51624067  0.82334746    -0.47000
C2480       C  0.61129498  0.89073187  0.72465330     0.42300
N2481       N  0.56834926  0.90495157  0.79595431     0.01100
N2482       N  0.56862899  0.50715915  0.72978503    -0.25700
N2483       N  0.99085982  0.90427817  0.74782179    -0.26200
N2484       N  0.56976550  0.53195174  0.74499590     0.00800
H2485       H  0.59706440  0.50094154  0.69962053     0.06700
H2486       H  0.60434438  0.58030966  0.78649480     0.06700
N2487       N  0.56863744  0.93034774  0.81079806    -0.26300
N2488       N  0.99357802  0.53636390  0.79338820    -0.25900
N2489       N  0.56848927  0.92611140  0.73159188     0.01100
C2490       C  0.94614369  0.89940908  0.81670654     0.42500
C2491       C  0.96504302  0.51232825  0.71693962    -0.07100
N2492       N  0.57098703  0.53463724  0.79316233    -0.25900
H2493       H  0.96303591  0.58398960  0.78697326     0.06700
N2494       N  0.96345902  0.88675876  0.79916859    -0.47100
H2495       H  0.95848788  0.49574773  0.70314964     0.06700
C2496       C  0.61005434  0.54781580  0.72257782     0.42400
C2497       C  0.96526005  0.88017298  0.74446489    -0.06600
Co2498     Co  0.53079063  0.96643608  0.72996442     0.73800
N2499       N  0.96609690  0.55615029  0.74235609    -0.46800
C2500       C  0.60771685  0.88800179  0.81883579     0.42600
N2501       N  0.59412143  0.91999103  0.71743710    -0.46800
Co2502     Co  0.53161834  0.53460774  0.76913912     0.73900
C2503       C  0.59799529  0.55737950  0.79644120    -0.07200
C2504       C  0.96500679  0.93096841  0.82428790    -0.06700
N2505       N  0.56786494  0.90254447  0.74754892    -0.26200
N2506       N  0.97051308  0.52162476  0.82486716    -0.47000
H2507       H  0.59733645  0.93658305  0.84083884     0.06600
C2508       C  0.59291267  0.51524953  0.71462704    -0.07100
Cl2509     Cl  0.53158455  0.96936136  0.76996057    -0.50100
C2510       C  0.94799956  0.54469828  0.72481758     0.42400
H2511       H  0.60010072  0.85637886  0.75480650     0.06600
N2512       N  0.59400823  0.55673047  0.74126095    -0.46800
C2513       C  0.70515607  0.95642951  0.93371936    -0.18000
C2514       C  0.69373814  0.96782675  0.91328247    -0.20200
C2515       C  0.69213436  0.51192582  0.91034847     0.20400
C2516       C  0.71547880  0.53391423  0.92232110    -0.03100
C2517       C  0.72839188  0.52239288  0.94261835    -0.06200
C2518       C  0.72362126  0.97986874  0.94745256     0.20700
C2519       C  0.75175974  0.54444055  0.95456354     0.18900
C2520       C  0.76188614  0.57774794  0.94614324    -0.17700
C2521       C  0.74935284  0.58900040  0.92595793    -0.19900
C2522       C  0.72633439  0.56719455  0.91389285     0.20400
C2523       C  0.71446715  0.57792152  0.89340338    -0.32900
C2524       C  0.69168669  0.55596988  0.88109815     0.01100
C2525       C  0.68014225  0.52322722  0.88989850    -0.24200
C2526       C  0.73519587  0.96866718  0.96795113    -0.28800
C2527       C  0.75360902  0.99232357  0.98160800     0.06700
C2528       C  0.76491195  0.53256465  0.97455936    -0.27500
H2529       H  0.69949286  0.92928550  0.93880007     0.11500
H2530       H  0.67945416  0.94922136  0.90302033     0.12600
H2531       H  0.77979581  0.59497683  0.95508209     0.11700
H2532       H  0.75786359  0.61468019  0.91970725     0.10900
H2533       H  0.72326685  0.60340410  0.88698944     0.16300
H2534       H  0.66257243  0.50611091  0.88063302     0.12200
H2535       H  0.73018899  0.94150606  0.97329082     0.15100
H2536       H  0.78312863  0.54915212  0.98373031     0.14800
C2537       C  0.80516460  0.86288645  0.94665530    -0.18000
C2538       C  0.81482530  0.85271952  0.92568769    -0.20200
C2539       C  0.83456817  0.87594170  0.91253236     0.20400
C2540       C  0.84471171  0.90977179  0.92058525    -0.03100
C2541       C  0.83468773  0.92018160  0.94170655    -0.06200
C2542       C  0.81486643  0.89653381  0.95480044     0.20700
C2543       C  0.84404604  0.95436769  0.94959619     0.18900
C2544       C  0.86377869  0.97760549  0.93642743    -0.17700
C2545       C  0.87416153  0.96706929  0.91561449    -0.19900
C2546       C  0.86470119  0.93325274  0.90751577     0.20400
C2547       C  0.87485365  0.92247544  0.88661244    -0.32900
C2548       C  0.86483171  0.88870608  0.87843916     0.01100
C2549       C  0.84441745  0.86578189  0.89151319    -0.24200
C2550       C  0.80429784  0.90730975  0.97557273    -0.28800
C2551       C  0.81254650  0.94167011  0.98319843     0.06700
C2552       C  0.83277842  0.96496045  0.97029588    -0.27500
H2553       H  0.78981663  0.84449794  0.95645468     0.11500
H2554       H  0.80684722  0.82665036  0.91975252     0.12600
H2555       H  0.87111398  0.00396155  0.94220573     0.11700
H2556       H  0.88943717  0.98548701  0.90579415     0.10900
H2557       H  0.89043520  0.94048241  0.87668336     0.16300
H2558       H  0.83669988  0.83966685  0.88550050     0.12200
H2559       H  0.78820583  0.88967070  0.98545380     0.15100
H2560       H  0.83875719  0.99162521  0.97617556     0.14800
C2561       C  0.64003765  0.70012427  0.62210305    -0.18000
C2562       C  0.62446152  0.71424150  0.60339302    -0.20200
C2563       C  0.59753864  0.69542479  0.59259339     0.20400
C2564       C  0.58621780  0.66201083  0.60069463    -0.03100
C2565       C  0.60193352  0.64779193  0.61959474    -0.06200
C2566       C  0.62894510  0.66697034  0.63037203     0.20700
C2567       C  0.59042034  0.61455512  0.62778110     0.18900
C2568       C  0.56345090  0.59573946  0.61698891    -0.17700
C2569       C  0.54802270  0.60970632  0.59820417    -0.19900
C2570       C  0.55922594  0.64275700  0.58990106     0.20400
C2571       C  0.54423102  0.65676462  0.57090329    -0.32900
C2572       C  0.55564742  0.68985765  0.56277021     0.01100
C2573       C  0.58199306  0.70924080  0.57372806    -0.24200
C2574       C  0.64384358  0.65303227  0.64945615    -0.28800
C2575       C  0.63187197  0.62028122  0.65808894     0.06700
C2576       C  0.60552070  0.60098890  0.64684742    -0.27500
H2577       H  0.66068583  0.71526371  0.63017879     0.11500
H2578       H  0.63348466  0.73988189  0.59736149     0.12600
H2579       H  0.55422114  0.57023405  0.62311403     0.11700
H2580       H  0.52729778  0.59462185  0.59016026     0.10900
H2581       H  0.52388480  0.64192719  0.56232203     0.16300
H2582       H  0.59078307  0.73470819  0.56727058     0.12200
H2583       H  0.66394784  0.66832576  0.65793469     0.15100
H2584       H  0.59599843  0.57574691  0.65321494     0.14800
C2585       C  0.92199597  0.73655857  0.62335082    -0.18000
C2586       C  0.93680276  0.72207908  0.60451004    -0.20200
C2587       C  0.96151693  0.74171522  0.59238791     0.20400
C2588       C  0.97120681  0.77642559  0.59926457    -0.03100
C2589       C  0.95651861  0.79089803  0.61843932    -0.06200
C2590       C  0.93180096  0.77083916  0.63051217     0.20700
C2591       C  0.96688905  0.82519780  0.62564994     0.18900
C2592       C  0.99134592  0.84497582  0.61338828    -0.17700
C2593       C  0.00550690  0.83087203  0.59423885    -0.19900
C2594       C  0.99578169  0.79657704  0.58708630     0.20400
C2595       C  0.01032924  0.78196058  0.56808503    -0.32900
C2596       C  0.50121538  0.74722485  0.56138866     0.01100
C2597       C  0.97679292  0.72723127  0.57357661    -0.24200
C2598       C  0.91782675  0.78506225  0.64974769    -0.28800
C2599       C  0.92869218  0.81887009  0.65746686     0.06700
C2600       C  0.95308912  0.83887461  0.64514010    -0.27500
H2601       H  0.90308271  0.72075808  0.63245150     0.11500
H2602       H  0.92898493  0.69546201  0.59944872     0.12600
H2603       H  0.99961277  0.87134873  0.61864360     0.11700
H2604       H  0.02434621  0.84671043  0.58510576     0.10900
H2605       H  0.02913107  0.79733752  0.55861869     0.16300
H2606       H  0.46961695  0.70053936  0.56828555     0.12200
H2607       H  0.89932609  0.76912344  0.65907812     0.15100
H2608       H  0.96172324  0.86488763  0.65083875     0.14800
C2609       C  0.55401823  0.83304243  0.92177772    -0.18000
C2610       C  0.53908432  0.81737735  0.94019129    -0.20200
C2611       C  0.55676911  0.78966865  0.95105712     0.20400
C2612       C  0.58998784  0.77774954  0.94336038    -0.03100
C2613       C  0.60487746  0.79331208  0.92459417    -0.06200
C2614       C  0.58673509  0.82104351  0.91376479     0.20700
C2615       C  0.63756540  0.78076089  0.91649329     0.18900
C2616       C  0.65541830  0.75323700  0.92750709    -0.17700
C2617       C  0.64094812  0.73819603  0.94630227    -0.19900
C2618       C  0.60820146  0.75015207  0.95432266     0.20400
C2619       C  0.59330331  0.73509170  0.97307940    -0.32900
C2620       C  0.56008317  0.74667453  0.98061814     0.01100
C2621       C  0.54187781  0.77377858  0.96951315    -0.24200
C2622       C  0.60098708  0.83557317  0.89473333    -0.28800
C2623       C  0.63276998  0.82220630  0.88590555     0.06700
C2624       C  0.65129881  0.79524900  0.89722200    -0.27500
H2625       H  0.53971374  0.85427276  0.91362195     0.11500
H2626       H  0.51364500  0.82691621  0.94592135     0.12600
H2627       H  0.68051521  0.74321031  0.92152458     0.11700
H2628       H  0.65526400  0.71699537  0.95447875     0.10900
H2629       H  0.60730401  0.71420599  0.98176265     0.16300
H2630       H  0.51638568  0.78280530  0.97549985     0.12200
H2631       H  0.58635576  0.85627598  0.88629655     0.15100
H2632       H  0.67583185  0.78469369  0.89070852     0.14800
C2633       C  0.51677381  0.62180087  0.91441540    -0.18000
C2634       C  0.53095094  0.63752389  0.93304770    -0.20200
C2635       C  0.50929555  0.65756652  0.94696459     0.20400
C2636       C  0.97297268  0.66184637  0.94205019    -0.03100
C2637       C  0.95869456  0.64613010  0.92315060    -0.06200
C2638       C  0.98074003  0.62596972  0.90932833     0.20700
C2639       C  0.92252424  0.65087792  0.91798586     0.18900
C2640       C  0.90084726  0.67079504  0.93199773    -0.17700
C2641       C  0.91489703  0.68600984  0.95087275    -0.19900
C2642       C  0.95091900  0.68180017  0.95601165     0.20400
C2643       C  0.96528189  0.69699929  0.97488336    -0.32900
C2644       C  0.00144161  0.69284019  0.97981567     0.01100
C2645       C  0.52328007  0.67313091  0.96578707    -0.24200
C2646       C  0.96661469  0.61096320  0.89040775    -0.28800
C2647       C  0.93088428  0.61650495  0.88469159     0.06700
C2648       C  0.90888581  0.63623965  0.89871314    -0.27500
H2649       H  0.53408157  0.60652394  0.90389577     0.11500
H2650       H  0.55886265  0.63398912  0.93658158     0.12600
H2651       H  0.87303254  0.67469562  0.92832753     0.11700
H2652       H  0.89758523  0.70122999  0.96141784     0.10900
H2653       H  0.94841268  0.71206123  0.98579238     0.16300
H2654       H  0.55098474  0.66928880  0.96981236     0.12200
H2655       H  0.98399312  0.59623328  0.87964049     0.15100
H2656       H  0.88135944  0.64067936  0.89445451     0.14800
C2657       C  0.79114502  0.56275853  0.62527505    -0.18000
C2658       C  0.78070637  0.55000224  0.60496057    -0.20200
C2659       C  0.80299821  0.52721017  0.59311035     0.20400
C2660       C  0.83611802  0.51707020  0.60178365    -0.03100
C2661       C  0.84643707  0.52958627  0.62238814    -0.06200
C2662       C  0.82390163  0.55266673  0.63415729     0.20700
C2663       C  0.87919844  0.51885055  0.63123860     0.18900
C2664       C  0.90099148  0.99849819  0.61689217    -0.17700
C2665       C  0.89017591  0.98700994  0.59637102    -0.19900
C2666       C  0.85679391  0.99666758  0.58824226     0.20400
C2667       C  0.84552464  0.98474543  0.56781855    -0.32900
C2668       C  0.81156360  0.99337566  0.56018185     0.01100
C2669       C  0.79256001  0.51395248  0.57288500    -0.24200
C2670       C  0.83441470  0.56505263  0.65463896    -0.31200
C2671       C  0.86696036  0.55424955  0.66364870     0.06700
C2672       C  0.88915018  0.53111548  0.65177660    -0.27500
H2673       H  0.77348472  0.58036949  0.63410164     0.11500
H2674       H  0.75517533  0.55794715  0.59851914     0.12600
H2675       H  0.92687128  0.99059974  0.62281384     0.11700
H2676       H  0.90788802  0.97041488  0.58688705     0.10900
H2677       H  0.86255799  0.96764461  0.55817850     0.16300
H2678       H  0.76677858  0.52086150  0.56633466     0.12200
H2679       H  0.81706026  0.58274239  0.66364456     0.15100
H2680       H  0.91439025  0.52270439  0.65844517     0.14800
C2681       C  0.77729614  0.87665381  0.62987518    -0.18000
C2682       C  0.78906760  0.88745412  0.60944064    -0.20200
C2683       C  0.76709792  0.90798449  0.59596127     0.20400
C2684       C  0.73317212  0.91832591  0.60326362    -0.03100
C2685       C  0.72145158  0.90774780  0.62399992    -0.06200
C2686       C  0.74348128  0.88645410  0.63724645     0.20700
C2687       C  0.68761967  0.91818761  0.63137699     0.18900
C2688       C  0.66593499  0.93935153  0.61804595    -0.17700
C2689       C  0.67744623  0.94963418  0.59743021    -0.19900
C2690       C  0.71088807  0.93906346  0.58981393     0.20400
C2691       C  0.72255525  0.94892248  0.56906097    -0.32900
C2692       C  0.75635574  0.93874518  0.56182421     0.01100
C2693       C  0.77848438  0.91836695  0.57532118    -0.24200
C2694       C  0.73123005  0.87507451  0.65754370    -0.28800
C2695       C  0.69734763  0.88498108  0.66495716     0.06700
C2696       C  0.67589393  0.90695864  0.65183544    -0.27500
H2697       H  0.79462033  0.86048695  0.63989087     0.11500
H2698       H  0.81525316  0.87949451  0.60410264     0.12600
H2699       H  0.63993120  0.94770716  0.62349575     0.11700
H2700       H  0.66010921  0.96576631  0.58740305     0.10900
H2701       H  0.70581044  0.96517105  0.55871487     0.16300
H2702       H  0.80469757  0.91090023  0.56972664     0.12200
H2703       H  0.74814907  0.85846244  0.66755916     0.15100
H2704       H  0.64974516  0.91479177  0.65733065     0.14800
C2705       C  0.65348669  0.00203462  0.11486438    -0.18000
C2706       C  0.66847220  0.98617885  0.09647073    -0.20200
C2707       C  0.70059095  0.99895451  0.08799427     0.20400
C2708       C  0.72283742  0.52928614  0.09933788    -0.03100
C2709       C  0.70628299  0.54356571  0.11794571    -0.06200
C2710       C  0.68359953  0.52185796  0.13046228     0.20700
C2711       C  0.71297433  0.57924396  0.12425843     0.18900
C2712       C  0.73532837  0.60065194  0.11149501    -0.17700
C2713       C  0.75125989  0.58668907  0.09282539    -0.19900
C2714       C  0.74543229  0.55096463  0.08670736     0.20400
C2715       C  0.76170631  0.53647076  0.06821782    -0.32900
C2716       C  0.74884963  0.99527349  0.06184170     0.01100
C2717       C  0.71640095  0.98258698  0.06991962    -0.24200
C2718       C  0.66841034  0.53560692  0.14941786    -0.28800
C2719       C  0.67635876  0.57048885  0.15653958     0.06700
C2720       C  0.69809746  0.59244853  0.14355950    -0.27500
H2721       H  0.62903283  0.99121409  0.12131820     0.11500
H2722       H  0.65518058  0.96358062  0.08905183     0.12600
H2723       H  0.74071575  0.62812659  0.11604392     0.11700
H2724       H  0.76846264  0.60373636  0.08329751     0.10900
H2725       H  0.77870776  0.55305344  0.05824564     0.16300
H2726       H  0.70360521  0.96003046  0.06211152     0.12200
H2727       H  0.65192548  0.51829652  0.15924643     0.15100
H2728       H  0.70433561  0.61941155  0.14880343     0.14800
C2729       C  0.56102842  0.60688950  0.44838119    -0.18000
C2730       C  0.57238182  0.59558273  0.42791531    -0.20200
C2731       C  0.59076027  0.61907560  0.41418288     0.20400
C2732       C  0.59811966  0.65420584  0.42122721    -0.03100
C2733       C  0.58654802  0.66566623  0.44186414    -0.06200
C2734       C  0.56775548  0.64193795  0.45547253     0.20700
C2735       C  0.59343623  0.70099023  0.44875976     0.18900
C2736       C  0.61199322  0.72440960  0.43509482    -0.17700
C2737       C  0.62358110  0.71301082  0.41470885    -0.19900
C2738       C  0.61675407  0.67799323  0.40759340     0.20400
C2739       C  0.62801470  0.66646365  0.38704887    -0.32900
C2740       C  0.62040539  0.63159742  0.37977408     0.01100
C2741       C  0.60173400  0.60810573  0.39350533    -0.24200
C2742       C  0.55536490  0.65393567  0.47568841    -0.28800
C2743       C  0.56128236  0.68941478  0.48232556     0.06700
C2744       C  0.58107794  0.71246762  0.46901736    -0.27500
H2745       H  0.04666645  0.58830036  0.45858002     0.11500
H2746       H  0.56660570  0.56846503  0.42277565     0.12600
H2747       H  0.61736230  0.75167057  0.44012582     0.11700
H2748       H  0.63773831  0.73166652  0.40445224     0.10900
H2749       H  0.64218343  0.68482753  0.37659370     0.16300
H2750       H  0.59591879  0.58108731  0.38816996     0.12200
H2751       H  0.54014456  0.63614596  0.48595623     0.15100
H2752       H  0.58619899  0.73964422  0.47431477     0.14800
C2753       C  0.91238852  0.50421618  0.42960217    -0.18000
C2754       C  0.89954208  0.48947299  0.44889300    -0.20200
C2755       C  0.86463769  0.49615309  0.45562353     0.20400
C2756       C  0.84252938  0.51819773  0.44286841    -0.03100
C2757       C  0.85565289  0.53343900  0.42353838    -0.06200
C2758       C  0.89065370  0.52616912  0.41678276     0.20700
C2759       C  0.83361693  0.55564119  0.41088124     0.18900
C2760       C  0.79872297  0.56241187  0.41763714    -0.17700
C2761       C  0.78563463  0.54711111  0.43668616    -0.19900
C2762       C  0.80726184  0.52488519  0.44936174     0.20400
C2763       C  0.79425184  0.50923130  0.46839697    -0.32900
C2764       C  0.81323626  0.98593747  0.47974707     0.01100
C2765       C  0.84896771  0.98077816  0.47409142    -0.24200
C2766       C  0.90315489  0.54056698  0.39720659    -0.28800
C2767       C  0.88126499  0.56251537  0.38435201     0.06700
C2768       C  0.84663308  0.57023164  0.39152177    -0.27500
H2769       H  0.93933168  0.49837743  0.42468077     0.11500
H2770       H  0.91555920  0.97420807  0.45897097     0.12600
H2771       H  0.78143131  0.57936572  0.40809115     0.11700
H2772       H  0.75855493  0.55259559  0.44147915     0.10900
H2773       H  0.76721953  0.51431777  0.47349504     0.16300
H2774       H  0.86611684  0.96560564  0.48478076     0.12200
H2775       H  0.92983547  0.53439681  0.39188823     0.15100
H2776       H  0.82930347  0.58673663  0.38170963     0.14800
C2777       C  0.52588672  0.79784866  0.10842526    -0.18000
C2778       C  0.53791821  0.80856989  0.12885349    -0.20200
C2779       C  0.57165921  0.79834011  0.13620242     0.20400
C2780       C  0.59338020  0.77683679  0.12291690    -0.03100
C2781       C  0.58140982  0.76634810  0.10220348    -0.06200
C2782       C  0.54750233  0.77693262  0.09494052     0.20700
C2783       C  0.60339073  0.74528149  0.08877672     0.18900
C2784       C  0.63677798  0.73441744  0.09631556    -0.17700
C2785       C  0.64852679  0.74460767  0.11689360    -0.19900
C2786       C  0.62714395  0.76598410  0.13025757     0.20400
C2787       C  0.63913086  0.77700473  0.15071496    -0.32900
C2788       C  0.61802813  0.79919322  0.16387092     0.01100
C2789       C  0.58417053  0.80949021  0.15651055    -0.24200
C2790       C  0.53575555  0.76616524  0.07440082    -0.28800
C2791       C  0.55759798  0.74524015  0.06101083     0.06700
C2792       C  0.59144655  0.73516890  0.06815517    -0.27500
H2793       H  0.99973906  0.80604625  0.10313264     0.11500
H2794       H  0.52084060  0.82494895  0.13889489     0.12600
H2795       H  0.65385269  0.71803484  0.08627543     0.11700
H2796       H  0.67446861  0.73595931  0.12230373     0.10900
H2797       H  0.66523991  0.76891774  0.15616726     0.16300
H2798       H  0.56749698  0.82628282  0.16656356     0.12200
H2799       H  0.50949436  0.77361277  0.06885754     0.15100
H2800       H  0.60795231  0.71855896  0.05787806     0.14800
C2801       C  0.02474520  0.62225802  0.12606436    -0.18000
C2802       C  0.53613866  0.63506978  0.10596421    -0.20200
C2803       C  0.01356679  0.65603618  0.09311280     0.20400
C2804       C  0.97916663  0.66426097  0.10057388    -0.03100
C2805       C  0.96780719  0.65164408  0.12097157    -0.06200
C2806       C  0.99067835  0.63045523  0.13373791     0.20700
C2807       C  0.93367828  0.66043435  0.12863045     0.18900
C2808       C  0.91109206  0.68137862  0.11575042    -0.17700
C2809       C  0.92223291  0.69364346  0.09546661    -0.19900
C2810       C  0.95621621  0.68531464  0.08773997     0.20400
C2811       C  0.96783688  0.69802111  0.06755989    -0.32900
C2812       C  0.00224875  0.69038309  0.06028270     0.01100
C2813       C  0.52487188  0.66920935  0.07303025    -0.24200
C2814       C  0.97923784  0.61812050  0.15402760    -0.28800
C2815       C  0.94542100  0.62719751  0.16195273     0.06700
C2816       C  0.92280024  0.64833245  0.14907524    -0.27500
H2817       H  0.04267621  0.60611018  0.13567531     0.11500
H2818       H  0.56265212  0.62859330  0.10047462     0.12600
H2819       H  0.88478733  0.68834770  0.12138947     0.11700
H2820       H  0.90432257  0.70983032  0.08586874     0.10900
H2821       H  0.95058676  0.71463788  0.05776045     0.16300
H2822       H  0.55144675  0.66339575  0.06734240     0.12200
H2823       H  0.99695477  0.60198147  0.16380306     0.15100
H2824       H  0.89660081  0.65530589  0.15491374     0.14800
C2825       C  0.67109606  0.93166986  0.45044815    -0.18000
C2826       C  0.65717616  0.91824060  0.43107482    -0.20200
C2827       C  0.67787310  0.89645803  0.41755697     0.20400
C2828       C  0.71289653  0.88785813  0.42376933    -0.03100
C2829       C  0.72716642  0.90190429  0.44316223    -0.06200
C2830       C  0.70608606  0.92387945  0.45656120     0.20700
C2831       C  0.76260799  0.89434806  0.44899092     0.18900
C2832       C  0.78317612  0.87217818  0.43562334    -0.17700
C2833       C  0.76887593  0.85785946  0.41657483    -0.19900
C2834       C  0.73387448  0.86576061  0.41043257     0.20400
C2835       C  0.71983446  0.85272953  0.39091355    -0.32900
C2836       C  0.68536437  0.86225416  0.38413490     0.01100
C2837       C  0.66442489  0.88382055  0.39773763    -0.24200
C2838       C  0.72046763  0.93799916  0.47570015    -0.28800
C2839       C  0.75588110  0.93118886  0.48135891     0.06700
C2840       C  0.77684602  0.90930348  0.46798399    -0.27500
H2841       H  0.65458351  0.94852396  0.46054839     0.11500
H2842       H  0.63024290  0.92507589  0.42660015     0.12600
H2843       H  0.81037552  0.86601401  0.43985753     0.11700
H2844       H  0.78537708  0.84097515  0.40648377     0.10900
H2845       H  0.73643844  0.83636458  0.38056877     0.16300
H2846       H  0.63787044  0.89124044  0.39275250     0.12200
H2847       H  0.70440437  0.95496295  0.48602470     0.15100
H2848       H  0.80412575  0.90390441  0.47245410     0.14800
C2849       C  0.78274579  0.87471829  0.10674199    -0.18000
C2850       C  0.79801447  0.85864674  0.12499868    -0.20200
C2851       C  0.83258324  0.86764666  0.13151410     0.20400
C2852       C  0.85201001  0.89291612  0.11940276    -0.03100
C2853       C  0.83666344  0.90903513  0.10092770    -0.06200
C2854       C  0.80179981  0.89999120  0.09460351     0.20700
C2855       C  0.85628086  0.93413143  0.08876231     0.18900
C2856       C  0.89082141  0.94307497  0.09523564    -0.17700
C2857       C  0.90585481  0.92739090  0.11362796    -0.19900
C2858       C  0.88668859  0.90234262  0.12583119     0.20400
C2859       C  0.90139450  0.88716999  0.14457638    -0.32900
C2860       C  0.88197903  0.86261317  0.15711954     0.01100
C2861       C  0.84776630  0.85245444  0.15017079    -0.24200
C2862       C  0.78689661  0.91600994  0.07610013    -0.28800
C2863       C  0.80666597  0.94046493  0.06372569     0.06700
C2864       C  0.84121208  0.94949977  0.07018874    -0.27500
H2865       H  0.75602131  0.86734103  0.10210156     0.11500
H2866       H  0.78267404  0.83932331  0.13411144     0.12600
H2867       H  0.90622822  0.96228162  0.08607563     0.11700
H2868       H  0.93249314  0.93494268  0.11834702     0.10900
H2869       H  0.92774294  0.89515406  0.14965605     0.16300
H2870       H  0.83234399  0.83374142  0.15969559     0.12200
H2871       H  0.76037234  0.90877221  0.07093894     0.15100
H2872       H  0.85644240  0.96823680  0.06054696     0.14800
C2873       C  0.93245012  0.72586656  0.41724237    -0.18000
C2874       C  0.94333619  0.71525233  0.43791405    -0.20200
C2875       C  0.96889975  0.73511785  0.44923036     0.20400
C2876       C  0.98354342  0.76610206  0.43968649    -0.03100
C2877       C  0.97283959  0.77657389  0.41873322    -0.06200
C2878       C  0.94717148  0.75636694  0.40747793     0.20700
C2879       C  0.98794378  0.80716903  0.40903548     0.18900
C2880       C  0.51339143  0.82713085  0.42040607    -0.17700
C2881       C  0.52383434  0.81690668  0.44122622    -0.19900
C2882       C  0.50909152  0.78648103  0.45100272     0.20400
C2883       C  0.51973317  0.77579907  0.47177071    -0.32900
C2884       C  0.50585789  0.74453564  0.48102651     0.01100
C2885       C  0.98041315  0.72436708  0.46979987    -0.24200
C2886       C  0.93671881  0.76695832  0.38665059    -0.28800
C2887       C  0.95169899  0.79744642  0.37679714     0.06700
C2888       C  0.97737820  0.81731540  0.38815079    -0.27500
H2889       H  0.91266703  0.71008369  0.40883215     0.11500
H2890       H  0.93179919  0.69145445  0.44503848     0.12600
H2891       H  0.52524395  0.85068630  0.41318494     0.11700
H2892       H  0.54357437  0.83272148  0.44964991     0.10900
H2893       H  0.53960258  0.79104162  0.48048952     0.16300
H2894       H  0.96997439  0.70012726  0.47704476     0.12200
H2895       H  0.91690636  0.75135018  0.37813607     0.15100
H2896       H  0.98901989  0.84090369  0.38083286     0.14800
loop_ 
_geom_bond_atom_site_label_1 
_geom_bond_atom_site_label_2 
_geom_bond_distance 
_geom_bond_site_symmetry_2 
_ccdc_geom_bond_type 
C1            N2   1.360       .  A
C1            N6   1.361       .  A
C1          C715   1.484       .  S
N2            C3   1.357       .  A
C3            N4   1.358       .  A
C3           C25   1.466       .  S
N4            C5   1.357       .  A
C5            N6   1.359       .  A
C5          C132   1.468       .  S
C7            N8   1.362       .  A
C7           N12   1.364       .  A
C7          C688   1.485       .  S
N8            C9   1.356       .  A
C9           N10   1.354       .  A
C9           C55   1.464       .  S
N10          C11   1.356       .  A
C11          N12   1.361       .  A
C11         C102   1.466       .  S
C13          N14   1.360       .  A
C13          N18   1.365       .  A
C13         C664   1.487       .  S
N14          C15   1.356       .  A
C15          N16   1.356       .  A
C15         C142   1.464       .  S
N16          C17   1.358       .  A
C17          N18   1.362       .  A
C17          C75   1.470       .  S
C19          N20   1.360       .  A
C19          N24   1.356       .  A
C19         C643   1.485       .  S
N20          C21   1.361       .  A
C21          N22   1.361       .  A
C21          C65   1.471       .  S
N22          C23   1.360       .  A
C23          N24   1.357       .  A
C23         C152   1.467       .  S
C25        N1491   1.351       .  A
C25          C62   1.455       .  S
N26          N43   1.326       .  A
N26        N1496   1.322       .  A
N26         Co63   2.087   1_655  S
C27          N52   1.340       .  A
C27        C1513   1.457       .  S
C27          H72   1.082   1_655  S
H28          C69   1.082   1_455  S
C29          N53   1.339       .  A
C29          C33   1.458       .  S
C29          H58   1.082       .  S
Co30         N48   2.089       .  S
Co30         N38   2.076       .  S
Co30        N794   2.071       .  S
Co30        N770   2.096       .  S
Co30      Cl1522   2.427       .  S
N31          C69   1.344       .  A
N31        N1486   1.319       .  A
N31         Co32   2.088   1_655  S
Co32         N35   2.072       .  S
Co32        N776   2.073   1_455  S
Co32        N763   2.091       .  S
Co32        Cl74   2.474       .  S
C33          N71   1.346       .  A
C33          C80   1.460       .  S
N34          N41   1.320       .  A
N34          N64   1.323       .  A
N34         Co67   2.083       .  S
N35          N53   1.322       .  A
N35          N71   1.324       .  A
N36          C65   1.352       .  A
N36          N46   1.328       .  A
H37          C62   1.082       .  S
N38          N59   1.323       .  A
N38        N1479   1.319       .  A
N39          N57   1.320       .  A
N39          N44   1.328       .  A
N39        Co756   2.088   1_545  S
C40          N44   1.350       .  A
C40          C68   1.455       .  S
C40         C100   1.466       .  S
N41          C56   1.347       .  A
N41         Co63   2.094       .  S
C42          N70   1.336       .  A
C42          C45   1.454       .  S
C42          H76   1.082       .  S
N43        C1473   1.351       .  A
C45        N1514   1.350       .  A
C45          C88   1.464       .  S
N46        N1500   1.322       .  A
N46        Co754   2.104   1_545  S
N47          C73   1.341       .  A
N47          N49   1.322       .  A
N47        Co787   2.080   1_545  S
N48          C62   1.339       .  A
N48        N1474   1.322       .  A
N49          N77   1.325       .  A
N49        Co791   2.097   1_545  S
H50          C73   1.082       .  S
H51          C68   1.082       .  S
N52        N1494   1.322       .  A
N52        Co756   2.079   1_645  S
N53         Co67   2.092       .  S
N54          N66   1.328       .  A
N54        N1518   1.320       .  A
N54        Co787   2.088   1_645  S
C55          N59   1.347       .  A
C55        C1517   1.461       .  S
C56          C75   1.463       .  S
C56          H60   1.082       .  S
N57          C68   1.338       .  A
N57        Co791   2.079   1_545  S
C61          N77   1.350       .  A
C61          C73   1.457       .  S
C61          C94   1.466       .  S
Co63        N771   2.080       .  S
Co63        N778   2.095   1_455  S
Co63        Cl74   2.478       .  S
N64          C75   1.347       .  A
C65        C1475   1.457       .  S
N66        C1493   1.350       .  A
Co67        N773   2.096       .  S
Co67        N781   2.084       .  S
Co67        Cl74   2.429       .  S
C69        C1503   1.461       .  S
N70        N1502   1.320       .  A
N70        Co754   2.075   1_545  S
Cl74      Co1478   2.427   1_455  S
C78          N79   1.362       .  A
C78          N83   1.364       .  A
C78         C616   1.487       .  S
N79          C80   1.358       .  A
C80          N81   1.351       .  A
N81          C82   1.352       .  A
C82          N83   1.360       .  A
C82         C122   1.464       .  S
C84          N85   1.365       .  A
C84          N89   1.365       .  A
C84         C595   1.489       .  S
N85          C86   1.359       .  A
C86          N87   1.352       .  A
C86         C110   1.466       .  S
N87          C88   1.353       .  A
C88          N89   1.360       .  A
C90          N91   1.363       .  A
C90          N95   1.362       .  A
C90         C568   1.492       .  S
N91          C92   1.362       .  A
C92          N93   1.355       .  A
C92         C117   1.467       .  S
N93          C94   1.354       .  A
C94          N95   1.358       .  A
C96          N97   1.362       .  A
C96         N101   1.364       .  A
C96         C547   1.490       .  S
N97          C98   1.357       .  A
C98          N99   1.353       .  A
C98         C138   1.462       .  S
N99         C100   1.355       .  A
C100        N101   1.360       .  A
C102        N120   1.352       .  A
C102        C139   1.452       .  S
N103        N120   1.329       .  A
N103        N125   1.319       .  A
N103       Co140   2.092       .  S
C104        N129   1.342       .  A
C104        C142   1.460       .  S
C104        H149   1.082       .  S
H105        C146   1.082       .  S
C106        N130   1.337       .  A
C106        C110   1.453       .  S
C106        H135   1.082       .  S
Co107       N125   2.074       .  S
Co107       N115   2.102       .  S
Co107       N147   2.096       .  S
Co107       N123   2.079       .  S
Co107      Cl151   2.429       .  S
N108        C146   1.339       .  A
N108        N115   1.322       .  A
N108       Co109   2.078       .  S
Co109       N112   2.092       .  S
Co109       N129   2.085       .  S
Co109       N116   2.075       .  S
Co109      Cl151   2.473       .  S
C110        N148   1.352       .  A
N111        N118   1.322       .  A
N111        N141   1.328       .  A
N111       Co144   2.102       .  S
N112        N130   1.320       .  A
N112        N148   1.329       .  A
N113        C142   1.348       .  A
N113        N123   1.324       .  A
H114        C139   1.082       .  S
N115        N136   1.326       .  A
N116        N134   1.322       .  A
N116        N121   1.325       .  A
C117        N121   1.347       .  A
C117        C145   1.461       .  S
N118        C133   1.337       .  A
N118       Co140   2.076       .  S
C119        N147   1.338       .  A
C119        C122   1.459       .  S
C119        H153   1.082       .  S
C122        N143   1.347       .  A
N123        N129   1.319       .  A
N124        C150   1.343       .  A
N124        N126   1.319       .  A
N124       Co140   2.081       .  S
N125        C139   1.336       .  A
N126        N154   1.323       .  A
N126       Co144   2.080       .  S
H127        C150   1.082       .  S
H128        C145   1.082       .  S
N130       Co144   2.076       .  S
N131        N143   1.326       .  A
N131        N147   1.322       .  A
N131       Co140   2.075       .  S
C132        N136   1.352       .  A
C132        C146   1.456       .  S
C133        C152   1.455       .  S
C133        H137   1.082       .  S
N134        C145   1.341       .  A
N134       Co144   2.100       .  S
C138        N154   1.347       .  A
C138        C150   1.458       .  S
Co140      Cl151   2.475       .  S
N141        C152   1.352       .  A
Co144      Cl151   2.431       .  S
C155        C592   1.481       .  S
C155        C156   1.416       .  A
C155        C160   1.402       .  A
C156        C667   1.482       .  S
C156        C157   1.406       .  A
C157        H162   1.084       .  S
C157        C158   1.402       .  A
C158        C520   1.485       .  S
C158        C159   1.413       .  A
C159        C496   1.476       .  S
C159        C160   1.400       .  A
C160        H885   1.084       .  S
H161        C884   1.084   1_545  S
C163       C2088   1.482       .  S
C163        C164   1.413       .  A
C163       C1616   1.402       .  A
C164        C619   1.480       .  S
C164        C165   1.402       .  A
C165        H170   1.084       .  S
C165        C166   1.403       .  A
C166        C448   1.481   1_554  S
C166        C167   1.417   1_554  A
C167       C1920   1.484       .  S
C167       C1616   1.407   1_556  A
C168        H169   1.084       .  S
C168       C1611   1.402       .  A
C168       C1615   1.407   1_554  A
C171        C571   1.485       .  S
C171        C172   1.412       .  A
C171        C176   1.402       .  A
C172        C712   1.478       .  S
C172        C173   1.402       .  A
C173       H1626   1.084   1_455  S
C173        C174   1.405       .  A
C174        C424   1.485       .  S
C174        C175   1.419       .  A
C175        C400   1.486       .  S
C175        C176   1.409       .  A
C176        H177   1.084       .  S
H178       C1621   1.084       .  S
C179        C691   1.485       .  S
C179        C180   1.418       .  A
C179        C184   1.406       .  A
C180        C544   1.481       .  S
C180        C181   1.403       .  A
C181        H910   1.085       .  S
C181        C182   1.399       .  A
C182        C355   1.479   1_554  S
C182        C183   1.410       .  A
C183        C379   1.479   1_554  S
C183        C184   1.402       .  A
C184        H185   1.084       .  S
H186        C905   1.084   1_545  S
C187        N188   1.361       .  A
C187        N192   1.362       .  A
C187        C376   1.486       .  S
N188        C189   1.358       .  A
C189        N190   1.354       .  A
C189        C318   1.465       .  S
N190        C191   1.356       .  A
C191        N192   1.360       .  A
C191        C223   1.465       .  S
C193        N194   1.363       .  A
C193        N198   1.362       .  A
C193        C475   1.481       .  S
N194        C195   1.359       .  A
C195        N196   1.353       .  A
C195        C243   1.462       .  S
N196        C197   1.352       .  A
C197        N198   1.356       .  A
C197        C296   1.459       .  S
C199        N200   1.364       .  A
C199        N204   1.361       .  A
C199        C352   1.487       .  S
N200        C201   1.362       .  A
C201        N202   1.356       .  A
C201        C303   1.470       .  S
N202        C203   1.355       .  A
C203        N204   1.357       .  A
C203        C259   1.467       .  S
C205        N206   1.360       .  A
C205        N210   1.362       .  A
C205        C451   1.486       .  S
N206        C207   1.356       .  A
C207        N208   1.358       .  A
C207        C328   1.467       .  S
N208        C209   1.360       .  A
C209        N210   1.359       .  A
C209        C273   1.468       .  S
C211        N212   1.361       .  A
C211        N216   1.363       .  A
C211        C403   1.481       .  S
N212        C213   1.356       .  A
C213        N214   1.355       .  A
C213        C238   1.464       .  S
N214        C215   1.356       .  A
C215        N216   1.360       .  A
C215        C324   1.466       .  S
C217        N218   1.357       .  A
C217        N222   1.359       .  A
C217        C499   1.486       .  S
N218        C219   1.357       .  A
C219        N220   1.359       .  A
C219        C338   1.467       .  S
N220        C221   1.360       .  A
C221        N222   1.360       .  A
C221        C263   1.469       .  S
C223        N241   1.349       .  A
C223        C260   1.457       .  S
N224        N241   1.326       .  A
N224        N246   1.323       .  A
N224       Co261   2.081       .  S
C225        N250   1.338       .  A
C225        C263   1.455       .  S
C225        H270   1.082       .  S
H226        C267   1.082       .  S
C227        N251   1.340       .  A
C227        C231   1.459       .  S
C227        H256   1.082       .  S
Co228       N246   2.094       .  S
Co228       N236   2.081       .  S
Co228       N268   2.073       .  S
Co228       N244   2.102       .  S
Co228      Cl272   2.428       .  S
N229        C267   1.344       .  A
N229        N236   1.319       .  A
N229       Co230   2.085       .  S
Co230       N233   2.079       .  S
Co230       N250   2.075       .  S
Co230       N237   2.089       .  S
Co230      Cl272   2.473       .  S
C231        N269   1.348       .  A
C231        C286   1.466       .  S
N232        N239   1.319       .  A
N232        N262   1.323       .  A
N232       Co265   2.078       .  S
N233        N251   1.322       .  A
N233        N269   1.325       .  A
N234        C263   1.352       .  A
N234        N244   1.328       .  A
H235        C260   1.082       .  S
N236        N257   1.323       .  A
N237        N255   1.319       .  A
N237        N242   1.327       .  A
C238        N242   1.351       .  A
C238        C266   1.454       .  S
N239        C254   1.345       .  A
N239       Co261   2.095       .  S
C240        N268   1.336       .  A
C240        C243   1.452       .  S
C240        H274   1.082       .  S
C243        N264   1.351       .  A
N244        N250   1.321       .  A
N245        C271   1.341       .  A
N245        N247   1.321       .  A
N245       Co261   2.081       .  S
N246        C260   1.339       .  A
N247        N275   1.325       .  A
N247       Co265   2.096       .  S
H248        C271   1.082       .  S
H249        C266   1.082       .  S
N251       Co265   2.094       .  S
N252        N264   1.328       .  A
N252        N268   1.320       .  A
N252       Co261   2.090       .  S
C253        N257   1.347       .  A
C253        C267   1.460       .  S
C253        C280   1.465       .  S
C254        C273   1.464       .  S
C254        H258   1.082       .  S
N255        C266   1.338       .  A
N255       Co265   2.073       .  S
C259        N275   1.350       .  A
C259        C271   1.458       .  S
Co261      Cl272   2.477       .  S
N262        C273   1.346       .  A
Co265      Cl272   2.429       .  S
C276        N277   1.367       .  A
C276        N281   1.364       .  A
C276        C427   1.493       .  S
N277        C278   1.362       .  A
C278        N279   1.355       .  A
C278        C288   1.471       .  S
N279        C280   1.354       .  A
C280        N281   1.358       .  A
C282        N283   1.361       .  A
C282        N287   1.362       .  A
C282        C523   1.482       .  S
N283        C284   1.358       .  A
C284        N285   1.355       .  A
C284        C308   1.462       .  S
N285        C286   1.354       .  A
C286        N287   1.358       .  A
C288        N306   1.353       .  A
C288        C325   1.455       .  S
N289        N306   1.330       .  A
N289        N311   1.320       .  A
N289      Co1774   2.098       .  S
C290        N315   1.343       .  A
C290        C328   1.461       .  S
C290        H335   1.082       .  S
H291        C332   1.082       .  S
C292        N316   1.336       .  A
C292        C296   1.453       .  S
C292        H321   1.082       .  S
Co293       N333   2.089       .  S
Co293       N309   2.085       .  S
Co293      N1759   2.081   1_455  S
Co293      N1749   2.097   1_455  S
Co293      Cl337   2.431       .  S
N294        C332   1.339       .  A
N294        N301   1.321       .  A
N294      Co1743   2.075       .  S
Co295       N315   2.086       .  S
Co295      N1742   2.075   1_455  S
Co295      N2470   2.084   1_455  S
Co295      N1026   2.083       .  S
Co295      Cl337   2.473       .  S
C296        N334   1.349       .  A
N297        N304   1.322       .  A
N297        N327   1.328       .  A
N297      Co1778   2.103       .  S
N298        N316   1.319       .  A
N298        N334   1.326       .  A
N298      Co2467   2.082   1_545  S
N299        C328   1.348       .  A
N299        N309   1.325       .  A
H300        C325   1.082       .  S
N301        N322   1.326       .  A
N301      Co1741   2.097       .  S
N302        N320   1.322       .  A
N302        N307   1.326       .  A
N302      Co1019   2.077   1_545  S
C303        N307   1.348       .  A
C303        C331   1.462       .  S
N304        C319   1.337       .  A
N304      Co2498   2.073   1_545  S
C305        N333   1.338       .  A
C305        C308   1.456       .  S
C305        H339   1.082       .  S
C308        N329   1.348       .  A
N309        N315   1.319       .  A
N310        C336   1.346       .  A
N310        N312   1.320       .  A
N310      Co1050   2.093   1_545  S
N311        C325   1.338       .  A
N311      Co1741   2.081       .  S
N312        N340   1.322       .  A
N312       Co330   2.077       .  S
H313        C336   1.082   1_565  S
H314        C331   1.082       .  S
N316      Co1778   2.072       .  S
N317        N329   1.325       .  A
N317        N333   1.322       .  A
N317       Co326   2.077       .  S
C318        N322   1.351       .  A
C318        C332   1.454       .  S
C319        C338   1.454       .  S
C319        H323   1.082   1_545  S
N320        C331   1.342       .  A
N320       Co330   2.103       .  S
C324        N340   1.346       .  A
C324        C336   1.462       .  S
Co326      N1737   2.098   1_455  S
Co326      N2476   2.072   1_455  S
Co326      N1034   2.093       .  S
Co326      Cl337   2.475       .  S
N327        C338   1.352       .  A
Co330      N1745   2.103   1_455  S
Co330      N1764   2.072   1_455  S
Co330     Cl1061   2.431   1_545  S
Cl337     Co1054   2.431       .  S
C341        H357   1.083       .  S
C341        C342   1.400       .  A
C341        C346   1.404       .  A
C342        H358   1.084       .  S
C342       C1067   1.404       .  A
C343        C353   1.407       .  A
C343        C344   1.413       .  A
C343       C1066   1.404   1_545  A
C344        C350   1.410       .  A
C344        C345   1.414       .  A
C345        C347   1.413       .  A
C345       C1070   1.411   1_545  A
C346        C354   1.403       .  A
C346       C1069   1.411       .  A
C347        C356   1.404       .  A
C347        C348   1.403       .  A
C348        H359   1.084       .  S
C348        C349   1.399       .  A
C349        H360   1.083       .  S
C349        C350   1.404       .  A
C350        C351   1.403       .  A
C351        H361   1.084       .  S
C351        C352   1.409       .  A
C352        C353   1.408       .  A
C353        H362   1.084   1_545  S
C354        H363   1.084       .  S
C354        C355   1.405       .  A
C355       C1080   1.402       .  A
C356        H364   1.085       .  S
C356       C1079   1.403   1_545  A
C365        H381   1.084       .  S
C365        C366   1.400       .  A
C365        C370   1.403       .  A
C366        H382   1.083       .  S
C366        C367   1.404       .  A
C367        C377   1.405       .  A
C367        C368   1.411       .  A
C368        C374   1.411       .  A
C368        C369   1.412       .  A
C369        C371   1.411       .  A
C369        C370   1.413       .  A
C370        C378   1.404       .  A
C371        C380   1.401       .  A
C371        C372   1.403       .  A
C372        H383   1.083       .  S
C372        C373   1.399       .  A
C373        H384   1.084       .  S
C373        C374   1.404       .  A
C374        C375   1.403       .  A
C375        H385   1.084       .  S
C375        C376   1.409       .  A
C376        C377   1.409       .  A
C377        H386   1.084       .  S
C378        H387   1.085       .  S
C378        C379   1.403       .  A
C379        C380   1.404       .  A
C380        H388   1.084       .  S
C389        H405   1.084       .  S
C389        C390   1.399       .  A
C389        C394   1.404       .  A
C390        H406   1.083       .  S
C390        C391   1.403       .  A
C391        C401   1.403       .  A
C391        C392   1.412       .  A
C392        C398   1.412       .  A
C392        C393   1.413       .  A
C393        C395   1.412       .  A
C393        C394   1.411       .  A
C394        C402   1.402       .  A
C395        C404   1.406       .  A
C395        C396   1.404       .  A
C396        H407   1.083       .  S
C396        C397   1.400       .  A
C397        H408   1.084       .  S
C397        C398   1.404       .  A
C398        C399   1.404       .  A
C399        H409   1.085       .  S
C399        C400   1.406       .  A
C400        C401   1.406       .  A
C401        H410   1.083       .  S
C402        H411   1.085       .  S
C402        C403   1.408       .  A
C403        C404   1.406       .  A
C404        H412   1.084       .  S
C413        H429   1.084       .  S
C413        C414   1.401       .  A
C413        C418   1.405       .  A
C414        H430   1.083       .  S
C414        C415   1.404       .  A
C415        C425   1.408       .  A
C415        C416   1.413       .  A
C416        C422   1.412       .  A
C416        C417   1.416       .  A
C417        C419   1.412       .  A
C417        C418   1.410       .  A
C418        C426   1.407       .  A
C419        C428   1.407       .  A
C419        C420   1.404       .  A
C420        H431   1.083       .  S
C420        C421   1.400       .  A
C421        H432   1.084       .  S
C421        C422   1.403       .  A
C422        C423   1.405       .  A
C423        H433   1.085       .  S
C423       C1872   1.405       .  A
C424       C1871   1.405       .  A
C424       C1873   1.406   1_455  A
C425       H1882   1.084       .  S
C425       C1872   1.406       .  A
C426        H435   1.084       .  S
C426        C427   1.412       .  A
C427        C428   1.409       .  A
C428        H436   1.084       .  S
H434       C1873   1.084       .  S
C437        H453   1.084       .  S
C437        C438   1.398       .  A
C437        C442   1.404       .  A
C438        H454   1.083       .  S
C438        C439   1.403       .  A
C439        C449   1.402       .  A
C439        C440   1.412       .  A
C440        C446   1.412       .  A
C440        C441   1.413       .  A
C441        C443   1.412       .  A
C441        C442   1.411       .  A
C442        C450   1.402       .  A
C443        C452   1.406       .  A
C443        C444   1.404       .  A
C444        H455   1.083       .  S
C444        C445   1.401       .  A
C445        H456   1.084       .  S
C445        C446   1.404       .  A
C446        C447   1.405       .  A
C447        H457   1.084       .  S
C447        C448   1.405       .  A
C448        C449   1.403       .  A
C449        H458   1.084       .  S
C450        H459   1.084       .  S
C450        C451   1.409       .  A
C451        C452   1.408       .  A
C452        H460   1.084       .  S
C461        H477   1.084       .  S
C461        C462   1.399       .  A
C461       C1914   1.404   1_455  A
C462        H478   1.083       .  S
C462        C463   1.403       .  A
C463        C473   1.403       .  A
C463       C1912   1.412   1_455  A
C464        C470   1.412       .  A
C464        C465   1.412       .  A
C464       C1911   1.412       .  A
C465        C467   1.412       .  A
C465        C466   1.411       .  A
C466        C474   1.402       .  A
C466       C1909   1.404       .  A
C467        C476   1.405       .  A
C467        C468   1.404       .  A
C468        H479   1.083       .  S
C468        C469   1.399       .  A
C469        H480   1.084       .  S
C469        C470   1.403       .  A
C470        C471   1.403       .  A
C471        H481   1.085       .  S
C471        C472   1.405       .  A
C472       C1615   1.484       .  S
C472       C1921   1.406       .  A
C473        H482   1.084       .  S
C473       C1920   1.406       .  A
C474        H483   1.084       .  S
C474        C475   1.409       .  A
C475        C476   1.406       .  A
C476        H484   1.084       .  S
C485        H501   1.084       .  S
C485        C486   1.400       .  A
C485        C490   1.404       .  A
C486        H502   1.083       .  S
C486        C487   1.404       .  A
C487        C497   1.403       .  A
C487        C488   1.411       .  A
C488        C489   1.413       .  A
C488       C1218   1.413   1_545  A
C489        C491   1.410       .  A
C489        C490   1.412       .  A
C490        C498   1.405       .  A
C491        C500   1.403       .  A
C491       C1216   1.404   1_545  A
C492        H503   1.083       .  S
C492        C493   1.398       .  A
C492       C1215   1.404       .  A
C493        H504   1.084       .  S
C493        C494   1.402       .  A
C494        C495   1.402       .  A
C494       C1212   1.414       .  A
C495        H505   1.085       .  S
C495        C496   1.402       .  A
C496       C1221   1.404       .  A
C497        H506   1.084       .  S
C497       C1220   1.406   1_545  A
C498        H507   1.084       .  S
C498        C499   1.408       .  A
C499        C500   1.409       .  A
C500        H508   1.084       .  S
C509        H525   1.084       .  S
C509        C510   1.398       .  A
C509        C514   1.403       .  A
C510        H526   1.083       .  S
C510        C511   1.403       .  A
C511        C521   1.400       .  A
C511        C512   1.411       .  A
C512        C518   1.413       .  A
C512        C513   1.412       .  A
C513        C515   1.411       .  A
C513        C514   1.412       .  A
C514        C522   1.402       .  A
C515        C524   1.406       .  A
C515        C516   1.405       .  A
C516        H527   1.083       .  S
C516        C517   1.401       .  A
C517        H528   1.084       .  S
C517        C518   1.404       .  A
C518        C519   1.406       .  A
C519        H529   1.084       .  S
C519        C520   1.405       .  A
C520        C521   1.405       .  A
C521        H530   1.084       .  S
C522        H531   1.084       .  S
C522        C523   1.406       .  A
C523        C524   1.409       .  A
C524        H532   1.084       .  S
C533        H549   1.084       .  S
C533        C534   1.398       .  A
C533       C1262   1.403       .  A
C534        H550   1.083       .  S
C534        C535   1.402       .  A
C535        C545   1.402       .  A
C535       C1260   1.412       .  A
C536        C542   1.412       .  A
C536        C537   1.414       .  A
C536       C1259   1.412   1_545  A
C537        C539   1.410       .  A
C537        C538   1.411       .  A
C538        C546   1.406       .  A
C538       C1257   1.404       .  A
C539        C548   1.403       .  A
C539        C540   1.404       .  A
C540        H551   1.083       .  S
C540        C541   1.399       .  A
C541        H552   1.084       .  S
C541        C542   1.403       .  A
C542        C543   1.403       .  A
C543        H553   1.085       .  S
C543       C1268   1.403   1_545  A
C544        C545   1.403       .  A
C544       C1267   1.406       .  A
C545        H554   1.084       .  S
C546        H555   1.084       .  S
C546        C547   1.410       .  A
C547        C548   1.410       .  A
C548        H556   1.084       .  S
C557       H2021   1.083       .  S
C557        C558   1.400       .  A
C557        C562   1.403       .  A
C558        H574   1.084       .  S
C558        C559   1.404       .  A
C559        C569   1.404       .  A
C559        C560   1.410       .  A
C560        C566   1.412       .  A
C560        C561   1.415       .  A
C561        C563   1.411       .  A
C561        C562   1.413       .  A
C562        C570   1.406       .  A
C563        C572   1.405       .  A
C563        C564   1.404       .  A
C564        H575   1.084       .  S
C564        C565   1.401       .  A
C565        H576   1.083       .  S
C565        C566   1.405       .  A
C566        C567   1.408       .  A
C567        H577   1.084       .  S
C567        C568   1.411       .  A
C568        C569   1.410       .  A
C569        H578   1.084       .  S
C570        H579   1.084       .  S
C570        C571   1.404       .  A
C571        C572   1.405       .  A
C572        H580   1.084       .  S
H573       C2005   1.083       .  S
C581        H597   1.083   1_545  S
C581        C582   1.402   1_545  A
C581        C586   1.405       .  A
C582       H1322   1.084       .  S
C582        C583   1.404       .  A
C583        C584   1.412   1_565  A
C583       C1317   1.407       .  A
C584        C590   1.412       .  A
C584        C585   1.414       .  A
C585        C587   1.411       .  A
C585        C586   1.412       .  A
C586        C594   1.409       .  A
C587        C596   1.403       .  A
C587        C588   1.404       .  A
C588        H599   1.084       .  S
C588        C589   1.398       .  A
C589        H600   1.083       .  S
C589        C590   1.403       .  A
C590        C591   1.403       .  A
C591        H601   1.084       .  S
C591       C1316   1.404   1_545  A
C592        C593   1.404       .  A
C592       C1315   1.404       .  A
C593        H602   1.085       .  S
C593       C1307   1.405       .  A
C594        H603   1.084       .  S
C594        C595   1.410       .  A
C595        C596   1.408       .  A
C596        H604   1.084       .  S
H598       C1306   1.084       .  S
C605       H2069   1.083   1_455  S
C605        C606   1.400       .  A
C605        C610   1.404       .  A
C606        H622   1.084       .  S
C606        C607   1.404       .  A
C607        C617   1.405       .  A
C607        C608   1.411       .  A
C608        C614   1.411       .  A
C608        C609   1.413       .  A
C609        C611   1.413       .  A
C609        C610   1.412       .  A
C610        C618   1.403       .  A
C611        C620   1.403       .  A
C611        C612   1.403       .  A
C612        H623   1.084       .  S
C612        C613   1.399       .  A
C613        H624   1.083       .  S
C613        C614   1.404       .  A
C614        C615   1.404       .  A
C615        H625   1.084       .  S
C615        C616   1.408       .  A
C616        C617   1.410       .  A
C617        H626   1.084       .  S
C618        H627   1.084       .  S
C618        C619   1.405       .  A
C619        C620   1.402       .  A
C620        H628   1.085       .  S
H621       C2053   1.083       .  S
C629        H645   1.084       .  S
C629        C634   1.403       .  A
C629       C2078   1.397       .  A
C630        H646   1.084       .  S
C630       C2077   1.397       .  A
C630       C2079   1.402       .  A
C631        C632   1.411       .  A
C631       C2078   1.402       .  A
C631       C2089   1.399       .  A
C632        C638   1.413       .  A
C632        C633   1.412       .  A
C633        C635   1.410       .  A
C633        C634   1.412       .  A
C634        C642   1.403       .  A
C635        C644   1.405       .  A
C635        C636   1.405       .  A
C636        H647   1.084       .  S
C636        C637   1.401       .  A
C637        H648   1.083       .  S
C637        C638   1.404       .  A
C638        C639   1.407       .  A
C639        H649   1.084       .  S
C639        C640   1.405       .  A
C640       C1611   1.482       .  S
C640       C2089   1.403       .  A
C641        H650   1.085       .  S
C641       C2079   1.399       .  A
C641       C2088   1.403       .  A
C642        H651   1.084       .  S
C642        C643   1.406       .  A
C643        C644   1.410       .  A
C644        H652   1.084       .  S
C653        H669   1.084       .  S
C653        C654   1.400       .  A
C653        C658   1.403       .  A
C654        H670   1.083       .  S
C654        C655   1.404       .  A
C655        C665   1.406       .  A
C655        C656   1.413       .  A
C656        C662   1.410       .  A
C656        C657   1.413       .  A
C657        C659   1.413       .  A
C657        C658   1.412       .  A
C658        C666   1.403       .  A
C659        C668   1.404       .  A
C659        C660   1.403       .  A
C660        H671   1.084       .  S
C660        C661   1.400       .  A
C661        H672   1.084       .  S
C661        C662   1.405       .  A
C662        C663   1.403       .  A
C663        H673   1.084       .  S
C663        C664   1.411       .  A
C664        C665   1.407       .  A
C665        H674   1.084       .  S
C666        H675   1.084       .  S
C666        C667   1.404       .  A
C667        C668   1.405       .  A
C668        H676   1.084       .  S
C677        H693   1.083       .  S
C677        C678   1.401       .  A
C677        C682   1.405       .  A
C678        H694   1.084       .  S
C678        C679   1.404       .  A
C679        C689   1.408       .  A
C679        C680   1.412       .  A
C680        C686   1.410       .  A
C680        C681   1.414       .  A
C681        C683   1.413       .  A
C681        C682   1.412       .  A
C682        C690   1.406       .  A
C683        C692   1.403       .  A
C683        C684   1.403       .  A
C684        H695   1.084       .  S
C684        C685   1.398       .  A
C685        H696   1.084       .  S
C685        C686   1.404       .  A
C686        C687   1.402       .  A
C687        H697   1.084       .  S
C687        C688   1.409       .  A
C688        C689   1.408       .  A
C689        H698   1.084       .  S
C690        H699   1.084       .  S
C690        C691   1.407       .  A
C691        C692   1.404       .  A
C692        H700   1.084       .  S
C701        H717   1.083       .  S
C701        C702   1.400       .  A
C701        C706   1.404       .  A
C702        H718   1.084       .  S
C702        C703   1.403       .  A
C703        C713   1.403       .  A
C703        C704   1.412       .  A
C704        C705   1.412       .  A
C704       C2158   1.412       .  A
C705        C707   1.411       .  A
C705        C706   1.411       .  A
C706        C714   1.405       .  A
C707        C716   1.402       .  A
C707       C2156   1.404       .  A
C708        H719   1.084       .  S
C708        C709   1.398       .  A
C708       C2155   1.404   1_455  A
C709        H720   1.084       .  S
C709        C710   1.403       .  A
C710        C711   1.401       .  A
C710       C2152   1.412   1_455  A
C711        H721   1.084       .  S
C711        C712   1.403       .  A
C712       C2161   1.403   1_455  A
C713        H722   1.084       .  S
C713       C2160   1.403       .  A
C714        H723   1.084       .  S
C714        C715   1.409       .  A
C715        C716   1.408       .  A
C716        H724   1.084       .  S
C725        N726   1.363       .  A
C725        N730   1.358       .  A
C725       C1439   1.486       .  S
N726        C727   1.360       .  A
C727        N728   1.357       .  A
C727        C749   1.468       .  S
N728        C729   1.355       .  A
C729        N730   1.355       .  A
C729        C856   1.462       .  S
C731        N732   1.365       .  A
C731        N736   1.362       .  A
C731       C1412   1.489       .  S
N732        C733   1.359       .  A
C733        N734   1.355       .  A
C733        C779   1.468       .  S
N734        C735   1.356       .  A
C735        N736   1.358       .  A
C735        C826   1.464       .  S
C737        N738   1.359       .  A
C737        N742   1.365       .  A
C737       C1388   1.489       .  S
N738        C739   1.355       .  A
C739        N740   1.356       .  A
C739        C866   1.464       .  S
N740        C741   1.358       .  A
C741        N742   1.363       .  A
C741        C799   1.471       .  S
C743        N744   1.358       .  A
C743        N748   1.358       .  A
C743       C1367   1.485       .  S
N744        C745   1.359       .  A
C745        N746   1.359       .  A
C745        C789   1.465       .  S
N746        C747   1.358       .  A
C747        N748   1.358       .  A
C747        C876   1.466       .  S
C749       N2215   1.349       .  A
C749        C786   1.458       .  S
N750        N767   1.326       .  A
N750       N2220   1.323       .  A
N750       Co787   2.084   1_655  S
C751        N776   1.338       .  A
C751       C2237   1.455       .  S
C751        H796   1.082   1_655  S
H752        C793   1.082   1_455  S
C753        N777   1.339       .  A
C753        C757   1.457       .  S
C753        H782   1.082       .  S
Co754       N772   2.097       .  S
Co754       N762   2.080       .  S
Co754     Cl2246   2.429       .  S
N755        C793   1.346       .  A
N755       N2210   1.319       .  A
N755       Co756   2.091   1_655  S
Co756       N759   2.080       .  S
Co756      Cl798   2.477       .  S
C757        N795   1.348       .  A
C757        C804   1.463       .  S
N758        N765   1.320       .  A
N758        N788   1.324       .  A
N758       Co791   2.086       .  S
N759        N777   1.323       .  A
N759        N795   1.325       .  A
N760        C789   1.350       .  A
N760        N770   1.326       .  A
H761        C786   1.082       .  S
N762       N2203   1.319       .  A
N762        N783   1.322       .  A
N763        N781   1.320       .  A
N763        N768   1.328       .  A
C764        N768   1.351       .  A
C764        C792   1.457       .  S
C764        C824   1.470       .  S
N765        C780   1.346       .  A
N765       Co787   2.092       .  S
C766        N794   1.335       .  A
C766        C769   1.452       .  S
C766        H800   1.082       .  S
N767       C2197   1.349       .  A
C769       N2238   1.353       .  A
C769        C812   1.465       .  S
N770       N2224   1.321       .  A
N771        C797   1.339       .  A
N771        N773   1.323       .  A
N772        C786   1.340       .  A
N772       N2198   1.323       .  A
N773        N801   1.325       .  A
H774        C797   1.082       .  S
H775        C792   1.082       .  S
N776       N2218   1.321       .  A
N777       Co791   2.092       .  S
N778        N790   1.329       .  A
N778       N2242   1.319       .  A
C779        N783   1.347       .  A
C779       C2241   1.463       .  S
C780        C799   1.462       .  S
C780        H784   1.082       .  S
N781        C792   1.340       .  A
C785        N801   1.350       .  A
C785        C797   1.455       .  S
C785        C818   1.464       .  S
Co787      Cl798   2.478       .  S
N788        C799   1.348       .  A
C789       C2199   1.455       .  S
N790       C2217   1.353       .  A
Co791      Cl798   2.430       .  S
C793       C2227   1.463       .  S
N794       N2226   1.319       .  A
Cl798     Co2202   2.429   1_455  S
C802        N803   1.361       .  A
C802        N807   1.363       .  A
C802       C1340   1.485       .  S
N803        C804   1.357       .  A
C804        N805   1.353       .  A
N805        C806   1.354       .  A
C806        N807   1.360       .  A
C806        C846   1.465       .  S
C808        N809   1.364       .  A
C808        N813   1.365       .  A
C808       C1319   1.488       .  S
N809        C810   1.358       .  A
C810        N811   1.353       .  A
C810        C834   1.465       .  S
N811        C812   1.354       .  A
C812        N813   1.360       .  A
C814        N815   1.364       .  A
C814        N819   1.359       .  A
C814       C1292   1.487       .  S
N815        C816   1.363       .  A
C816        N817   1.356       .  A
C816        C841   1.469       .  S
N817        C818   1.355       .  A
C818        N819   1.356       .  A
C820        N821   1.362       .  A
C820        N825   1.365       .  A
C820       C1271   1.488       .  S
N821        C822   1.358       .  A
C822        N823   1.356       .  A
C822        C862   1.463       .  S
N823        C824   1.355       .  A
C824        N825   1.359       .  A
C826        N844   1.352       .  A
C826        C863   1.453       .  S
N827        N844   1.327       .  A
N827        N849   1.319       .  A
N827       Co864   2.092       .  S
C828        N853   1.342       .  A
C828        C866   1.459       .  S
C828        H873   1.082       .  S
H829        C870   1.082       .  S
C830        N854   1.337       .  A
C830        C834   1.454       .  S
C830        H859   1.082       .  S
Co831       N849   2.073       .  S
Co831       N839   2.089       .  S
Co831       N871   2.091       .  S
Co831       N847   2.080       .  S
Co831      Cl875   2.432       .  S
N832        C870   1.339       .  A
N832        N839   1.321       .  A
N832       Co833   2.075       .  S
Co833       N836   2.089       .  S
Co833       N853   2.086       .  S
Co833       N840   2.078       .  S
Co833      Cl875   2.472       .  S
C834        N872   1.351       .  A
N835        N842   1.322       .  A
N835        N865   1.328       .  A
N835       Co868   2.103       .  S
N836        N854   1.320       .  A
N836        N872   1.328       .  A
N837        C866   1.348       .  A
N837        N847   1.324       .  A
H838        C863   1.082       .  S
N839        N860   1.324       .  A
N840        N858   1.322       .  A
N840        N845   1.326       .  A
C841        N845   1.348       .  A
C841        C869   1.460       .  S
N842        C857   1.336       .  A
N842       Co864   2.073       .  S
C843        N871   1.339       .  A
C843        C846   1.458       .  S
C843        H877   1.082       .  S
C846        N867   1.348       .  A
N847        N853   1.319       .  A
N848        C874   1.344       .  A
N848        N850   1.320       .  A
N848       Co864   2.085       .  S
N849        C863   1.337       .  A
N850        N878   1.322       .  A
N850       Co868   2.079       .  S
H851        C874   1.082       .  S
H852        C869   1.082       .  S
N854       Co868   2.078       .  S
N855        N867   1.326       .  A
N855        N871   1.321       .  A
N855       Co864   2.079       .  S
C856        N860   1.349       .  A
C856        C870   1.456       .  S
C857        C876   1.453       .  S
C857        H861   1.082       .  S
N858        C869   1.341       .  A
N858       Co868   2.099       .  S
C862        N878   1.346       .  A
C862        C874   1.460       .  S
Co864      Cl875   2.471       .  S
N865        C876   1.353       .  A
Co868      Cl875   2.430       .  S
C879       C1316   1.484       .  S
C879        C880   1.417       .  A
C879        C884   1.406       .  A
C880       C1391   1.484       .  S
C880        C881   1.406       .  A
C881        H886   1.084       .  S
C881        C882   1.403       .  A
C882       C1244   1.481       .  S
C882        C883   1.412       .  A
C883       C1220   1.482       .  S
C883        C884   1.403       .  A
C887       C2812   1.482       .  S
C887        C888   1.411       .  A
C887       C2340   1.402       .  A
C888       C1343   1.480       .  S
C888        C889   1.403       .  A
C889        H894   1.084       .  S
C889        C890   1.405       .  A
C890       C1172   1.481   1_554  S
C890        C891   1.417       .  A
C891       C2644   1.484   1_554  S
C891       C2340   1.407       .  A
C892        H893   1.084       .  S
C892       C2335   1.402       .  A
C892       C2339   1.407       .  A
C895       C1295   1.488       .  S
C895        C896   1.414       .  A
C895        C900   1.403       .  A
C896       C1436   1.476       .  S
C896        C897   1.404       .  A
C897       H2350   1.084   1_455  S
C897        C898   1.404       .  A
C898       C1148   1.485       .  S
C898        C899   1.414       .  A
C899       C1124   1.477       .  S
C899        C900   1.407       .  A
C900        H901   1.084       .  S
H902       C2345   1.084       .  S
C903       C1415   1.484       .  S
C903        C904   1.415       .  A
C903        C908   1.408       .  A
C904       C1268   1.479       .  S
C904        C905   1.405       .  A
C905        C906   1.402       .  A
C906       C1079   1.481   1_554  S
C906        C907   1.411       .  A
C907       C1103   1.481   1_554  S
C907        C908   1.404       .  A
C908        H909   1.084       .  S
C911        N912   1.360       .  A
C911        N916   1.363       .  A
C911       C1100   1.487       .  S
N912        C913   1.358       .  A
C913        N914   1.355       .  A
C913       C1042   1.464       .  S
N914        C915   1.356       .  A
C915        N916   1.360       .  A
C915        C947   1.469       .  S
C917        N918   1.364       .  A
C917        N922   1.363       .  A
C917       C1199   1.485       .  S
N918        C919   1.360       .  A
C919        N920   1.354       .  A
C919        C967   1.462       .  S
N920        C921   1.351       .  A
C921        N922   1.356       .  A
C921       C1020   1.462       .  S
C923        N924   1.364       .  A
C923        N928   1.359       .  A
C923       C1076   1.488       .  S
N924        C925   1.363       .  A
C925        N926   1.359       .  A
C925       C1027   1.472       .  S
N926        C927   1.357       .  A
C927        N928   1.355       .  A
C927        C983   1.467       .  S
C929        N930   1.363       .  A
C929        N934   1.362       .  A
C929       C1175   1.491       .  S
N930        C931   1.359       .  A
C931        N932   1.355       .  A
C931       C1052   1.469       .  S
N932        C933   1.358       .  A
C933        N934   1.359       .  A
C933        C997   1.464       .  S
C935        N936   1.365       .  A
C935        N940   1.362       .  A
C935       C1127   1.490       .  S
N936        C937   1.361       .  A
C937        N938   1.355       .  A
C937        C962   1.468       .  S
N938        C939   1.355       .  A
C939        N940   1.356       .  A
C939       C1048   1.464       .  S
C941        N942   1.355       .  A
C941        N946   1.359       .  A
C941       C1223   1.483       .  S
N942        C943   1.354       .  A
C943        N944   1.358       .  A
C943       C1062   1.462       .  S
N944        C945   1.359       .  A
C945        N946   1.361       .  A
C945        C987   1.466       .  S
C947        N965   1.350       .  A
C947        C984   1.459       .  S
N948        N965   1.326       .  A
N948        N970   1.323       .  A
N948       Co985   2.088       .  S
C949        N974   1.338       .  A
C949        C987   1.454       .  S
C949        H994   1.082       .  S
H950        C991   1.082       .  S
C951        N975   1.338       .  A
C951        C955   1.458       .  S
C951        H980   1.082       .  S
Co952       N970   2.096       .  S
Co952       N960   2.082       .  S
Co952       N992   2.075       .  S
Co952       N968   2.102       .  S
Co952      Cl996   2.429       .  S
N953        C991   1.344       .  A
N953        N960   1.319       .  A
N953       Co954   2.085       .  S
Co954       N957   2.072       .  S
Co954       N974   2.072       .  S
Co954       N961   2.089       .  S
Co954      Cl996   2.473       .  S
C955        N993   1.347       .  A
C955       C1010   1.461       .  S
N956        N963   1.319       .  A
N956        N986   1.322       .  A
N956       Co989   2.077       .  S
N957        N975   1.321       .  A
N957        N993   1.324       .  A
N958        C987   1.352       .  A
N958        N968   1.327       .  A
H959        C984   1.082       .  S
N960        N981   1.324       .  A
N961        N979   1.319       .  A
N961        N966   1.328       .  A
C962        N966   1.351       .  A
C962        C990   1.455       .  S
N963        C978   1.345       .  A
N963       Co985   2.087       .  S
C964        N992   1.335       .  A
C964        C967   1.453       .  S
C964        H998   1.082       .  S
C967        N988   1.351       .  A
N968        N974   1.321       .  A
N969        C995   1.342       .  A
N969        N971   1.322       .  A
N969       Co985   2.087       .  S
N970        C984   1.341       .  A
N971        N999   1.325       .  A
N971       Co989   2.092       .  S
H972        C995   1.082       .  S
H973        C990   1.082       .  S
N975       Co989   2.090       .  S
N976        N988   1.328       .  A
N976        N992   1.320       .  A
N976       Co985   2.087       .  S
C977        N981   1.348       .  A
C977        C991   1.460       .  S
C977       C1004   1.466       .  S
C978        C997   1.462       .  S
C978        H982   1.082       .  S
N979        C990   1.338       .  A
N979       Co989   2.078       .  S
C983        N999   1.349       .  A
C983        C995   1.460       .  S
Co985      Cl996   2.478       .  S
N986        C997   1.346       .  A
Co989      Cl996   2.426       .  S
C1000      N1001   1.365       .  A
C1000      N1005   1.363       .  A
C1000      C1151   1.492       .  S
N1001      C1002   1.362       .  A
C1002      N1003   1.356       .  A
C1002      C1012   1.468       .  S
N1003      C1004   1.354       .  A
C1004      N1005   1.358       .  A
C1006      N1007   1.361       .  A
C1006      N1011   1.363       .  A
C1006      C1247   1.485       .  S
N1007      C1008   1.357       .  A
C1008      N1009   1.352       .  A
C1008      C1032   1.459       .  S
N1009      C1010   1.352       .  A
C1010      N1011   1.359       .  A
C1012      N1030   1.353       .  A
C1012      C1049   1.453       .  S
N1013      N1030   1.329       .  A
N1013      N1035   1.320       .  A
N1013     Co2498   2.094       .  S
C1014      N1039   1.342       .  A
C1014      C1052   1.458       .  S
C1014      H1059   1.082       .  S
H1015      C1056   1.082       .  S
C1016      N1040   1.338       .  A
C1016      C1020   1.455       .  S
C1016      H1045   1.082       .  S
Co1017     N2483   2.078   1_455  S
Co1017     N2473   2.095   1_455  S
Co1017     N1057   2.089       .  S
Co1017     N1033   2.091       .  S
Co1017    Cl1061   2.431       .  S
N1018      C1056   1.339       .  A
N1018      N1025   1.321       .  A
N1018     Co2467   2.073       .  S
Co1019     N2466   2.073   1_455  S
Co1019     N1746   2.082   1_465  S
Co1019     N1039   2.083       .  S
Co1019    Cl1061   2.471       .  S
C1020      N1058   1.349       .  A
N1021      N1028   1.322       .  A
N1021      N1051   1.327       .  A
N1021     Co2502   2.096       .  S
N1022      N1040   1.319       .  A
N1022      N1058   1.326       .  A
N1022     Co1743   2.084       .  S
N1023      C1052   1.350       .  A
N1023      N1033   1.326       .  A
H1024      C1049   1.082       .  S
N1025      N1046   1.325       .  A
N1025     Co2465   2.095       .  S
N1026      N1044   1.321       .  A
N1026      N1031   1.326       .  A
C1027      N1031   1.350       .  A
C1027      C1055   1.461       .  S
N1028      C1043   1.336       .  A
N1028     Co1774   2.072       .  S
C1029      N1057   1.338       .  A
C1029      C1032   1.456       .  S
C1029      H1063   1.082       .  S
C1032      N1053   1.347       .  A
N1033      N1039   1.319       .  A
N1034      C1060   1.345       .  A
N1034      N1036   1.320       .  A
N1035      C1049   1.337       .  A
N1035     Co2465   2.078       .  S
N1036      N1064   1.322       .  A
N1036     Co1054   2.076       .  S
H1037      C1060   1.082       .  S
H1038      C1055   1.082       .  S
N1040     Co2502   2.077       .  S
N1041      N1053   1.324       .  A
N1041      N1057   1.323       .  A
N1041     Co1050   2.074       .  S
C1042      N1046   1.351       .  A
C1042      C1056   1.454       .  S
C1043      C1062   1.454       .  S
C1043      H1047   1.082       .  S
N1044      C1055   1.342       .  A
N1044     Co1054   2.099       .  S
C1048      N1064   1.346       .  A
C1048      C1060   1.463       .  S
Co1050     N2461   2.094   1_455  S
Co1050     N1752   2.073   1_465  S
Co1050    Cl1061   2.474       .  S
N1051      C1062   1.350       .  A
Co1054     N2469   2.096   1_455  S
Co1054     N2488   2.077   1_455  S
C1065      H1081   1.083       .  S
C1065      C1066   1.401       .  A
C1065      C1070   1.404       .  A
C1066      H1082   1.084       .  S
C1067      C1077   1.407       .  A
C1067      C1068   1.413       .  A
C1068      C1074   1.409       .  A
C1068      C1069   1.413       .  A
C1069      C1071   1.414       .  A
C1070      C1078   1.404       .  A
C1071      C1080   1.403       .  A
C1071      C1072   1.402       .  A
C1072      H1083   1.084       .  S
C1072      C1073   1.399       .  A
C1073      H1084   1.083       .  S
C1073      C1074   1.404       .  A
C1074      C1075   1.401       .  A
C1075      H1085   1.084       .  S
C1075      C1076   1.410       .  A
C1076      C1077   1.408       .  A
C1077      H1086   1.084       .  S
C1078      H1087   1.084       .  S
C1078      C1079   1.405       .  A
C1080      H1088   1.085       .  S
C1089      H1105   1.084       .  S
C1089      C1090   1.399       .  A
C1089      C1094   1.402       .  A
C1090      H1106   1.083       .  S
C1090      C1091   1.404       .  A
C1091      C1101   1.403       .  A
C1091      C1092   1.411       .  A
C1092      C1098   1.411       .  A
C1092      C1093   1.413       .  A
C1093      C1095   1.412       .  A
C1093      C1094   1.413       .  A
C1094      C1102   1.403       .  A
C1095      C1104   1.405       .  A
C1095      C1096   1.404       .  A
C1096      H1107   1.083   1_565  S
C1096      C1097   1.401       .  A
C1097      H1108   1.084       .  S
C1097      C1098   1.405       .  A
C1098      C1099   1.406       .  A
C1099      H1109   1.084       .  S
C1099      C1100   1.410       .  A
C1100      C1101   1.407       .  A
C1101      H1110   1.084       .  S
C1102      H1111   1.085       .  S
C1102      C1103   1.402       .  A
C1103      C1104   1.406       .  A
C1104      H1112   1.084       .  S
C1113      H1129   1.084       .  S
C1113      C1114   1.400       .  A
C1113      C1118   1.404       .  A
C1114      H1130   1.083       .  S
C1114      C1115   1.403       .  A
C1115      C1125   1.403       .  A
C1115      C1116   1.412       .  A
C1116      C1122   1.413       .  A
C1116      C1117   1.413       .  A
C1117      C1119   1.410       .  A
C1117      C1118   1.412       .  A
C1118      C1126   1.406       .  A
C1119      C1128   1.403       .  A
C1119      C1120   1.404       .  A
C1120      H1131   1.083       .  S
C1120      C1121   1.399       .  A
C1121      H1132   1.084       .  S
C1121      C1122   1.403       .  A
C1122      C1123   1.404       .  A
C1123      H1133   1.085       .  S
C1123      C1124   1.403       .  A
C1124      C1125   1.403       .  A
C1125      H1134   1.084       .  S
C1126      H1135   1.084       .  S
C1126      C1127   1.410       .  A
C1127      C1128   1.410       .  A
C1128      H1136   1.083       .  S
C1137      H1153   1.084       .  S
C1137      C1138   1.400       .  A
C1137      C1142   1.404       .  A
C1138      H1154   1.083       .  S
C1138      C1139   1.404       .  A
C1139      C1149   1.406       .  A
C1139      C1140   1.413       .  A
C1140      C1146   1.412       .  A
C1140      C1141   1.415       .  A
C1141      C1143   1.412       .  A
C1141      C1142   1.410       .  A
C1142      C1150   1.405       .  A
C1143      C1152   1.408       .  A
C1143      C1144   1.405       .  A
C1144      H1155   1.083       .  S
C1144      C1145   1.401       .  A
C1145      H1156   1.084       .  S
C1145      C1146   1.404       .  A
C1146      C1147   1.407       .  A
C1147      H1157   1.085       .  S
C1147      C2596   1.405       .  A
C1148      C2595   1.405       .  A
C1148      C2597   1.405   1_455  A
C1149      H2606   1.084       .  S
C1149      C2596   1.405       .  A
C1150      H1159   1.084       .  S
C1150      C1151   1.411       .  A
C1151      C1152   1.410       .  A
C1152      H1160   1.084       .  S
H1158      C2597   1.084       .  S
C1161      H1177   1.084       .  S
C1161      C1162   1.399       .  A
C1161      C1166   1.404       .  A
C1162      H1178   1.083       .  S
C1162      C1163   1.403       .  A
C1163      C1173   1.404       .  A
C1163      C1164   1.413       .  A
C1164      C1170   1.412       .  A
C1164      C1165   1.414       .  A
C1165      C1167   1.411       .  A
C1165      C1166   1.411       .  A
C1166      C1174   1.403       .  A
C1167      C1176   1.407       .  A
C1167      C1168   1.405       .  A
C1168      H1179   1.083       .  S
C1168      C1169   1.402       .  A
C1169      H1180   1.084       .  S
C1169      C1170   1.404       .  A
C1170      C1171   1.406       .  A
C1171      H1181   1.084       .  S
C1171      C1172   1.405       .  A
C1172      C1173   1.403       .  A
C1173      H1182   1.084       .  S
C1174      H1183   1.084       .  S
C1174      C1175   1.409       .  A
C1175      C1176   1.411       .  A
C1176      H1184   1.084       .  S
C1185      H1201   1.084       .  S
C1185      C1186   1.398       .  A
C1185      C2638   1.404   1_455  A
C1186      H1202   1.083       .  S
C1186      C1187   1.403       .  A
C1187      C1197   1.403       .  A
C1187      C2636   1.412   1_455  A
C1188      C2635   1.412       .  A
C1188      C1194   1.412       .  A
C1188      C1189   1.413       .  A
C1189      C1191   1.412       .  A
C1189      C1190   1.410       .  A
C1190      C2633   1.404       .  A
C1190      C1198   1.401       .  A
C1191      C1200   1.407       .  A
C1191      C1192   1.404       .  A
C1192      H1203   1.083       .  S
C1192      C1193   1.401       .  A
C1193      H1204   1.084       .  S
C1193      C1194   1.404       .  A
C1194      C1195   1.405       .  A
C1195      H1205   1.085       .  S
C1195      C1196   1.406       .  A
C1196      C2339   1.484   1_556  S
C1196      C2645   1.405       .  A
C1197      H1206   1.084       .  S
C1197      C2644   1.405       .  A
C1198      H1207   1.084       .  S
C1198      C1199   1.408       .  A
C1199      C1200   1.408       .  A
C1200      H1208   1.084       .  S
C1209      H1225   1.084       .  S
C1209      C1210   1.399       .  A
C1209      C1214   1.403       .  A
C1210      H1226   1.083       .  S
C1210      C1211   1.403       .  A
C1211      C1221   1.400       .  A
C1211      C1212   1.411       .  A
C1212      C1213   1.411       .  A
C1213      C1215   1.409       .  A
C1213      C1214   1.413       .  A
C1214      C1222   1.404       .  A
C1215      C1224   1.400       .  A
C1216      H1227   1.083       .  S
C1216      C1217   1.399       .  A
C1217      H1228   1.084       .  S
C1217      C1218   1.403       .  A
C1218      C1219   1.404       .  A
C1219      H1229   1.084       .  S
C1219      C1220   1.403       .  A
C1221      H1230   1.084       .  S
C1222      H1231   1.084       .  S
C1222      C1223   1.407       .  A
C1223      C1224   1.409       .  A
C1224      H1232   1.084       .  S
C1233      H1249   1.084       .  S
C1233      C1234   1.398       .  A
C1233      C1238   1.403       .  A
C1234      H1250   1.083       .  S
C1234      C1235   1.403       .  A
C1235      C1245   1.401       .  A
C1235      C1236   1.411       .  A
C1236      C1242   1.413       .  A
C1236      C1237   1.412       .  A
C1237      C1239   1.410       .  A
C1237      C1238   1.412       .  A
C1238      C1246   1.403       .  A
C1239      C1248   1.404       .  A
C1239      C1240   1.405       .  A
C1240      H1251   1.083       .  S
C1240      C1241   1.400       .  A
C1241      H1252   1.084       .  S
C1241      C1242   1.403       .  A
C1242      C1243   1.405       .  A
C1243      H1253   1.084       .  S
C1243      C1244   1.404       .  A
C1244      C1245   1.404       .  A
C1245      H1254   1.084       .  S
C1246      H1255   1.084       .  S
C1246      C1247   1.408       .  A
C1247      C1248   1.409       .  A
C1248      H1256   1.084       .  S
C1257      H1273   1.084   1_545  S
C1257      C1258   1.401   1_545  A
C1258      H1274   1.083       .  S
C1258      C1259   1.404       .  A
C1259      C1269   1.406       .  A
C1260      C1266   1.412       .  A
C1260      C1261   1.413       .  A
C1261      C1263   1.411       .  A
C1261      C1262   1.411       .  A
C1262      C1270   1.402       .  A
C1263      C1272   1.408       .  A
C1263      C1264   1.405       .  A
C1264      H1275   1.083       .  S
C1264      C1265   1.402       .  A
C1265      H1276   1.084       .  S
C1265      C1266   1.404       .  A
C1266      C1267   1.406       .  A
C1267      H1277   1.084       .  S
C1268      C1269   1.405       .  A
C1269      H1278   1.084       .  S
C1270      H1279   1.084       .  S
C1270      C1271   1.408       .  A
C1271      C1272   1.411       .  A
C1272      H1280   1.084       .  S
C1281      H2745   1.083       .  S
C1281      C1282   1.401       .  A
C1281      C1286   1.404       .  A
C1282      H1298   1.084       .  S
C1282      C1283   1.405       .  A
C1283      C1293   1.404       .  A
C1283      C1284   1.410       .  A
C1284      C1290   1.413       .  A
C1284      C1285   1.414       .  A
C1285      C1287   1.411       .  A
C1285      C1286   1.413       .  A
C1286      C1294   1.407       .  A
C1287      C1296   1.403       .  A
C1287      C1288   1.404       .  A
C1288      H1299   1.084       .  S
C1288      C1289   1.400       .  A
C1289      H1300   1.083       .  S
C1289      C1290   1.404       .  A
C1290      C1291   1.406       .  A
C1291      H1301   1.084       .  S
C1291      C1292   1.407       .  A
C1292      C1293   1.410       .  A
C1293      H1302   1.084       .  S
C1294      H1303   1.084       .  S
C1294      C1295   1.405       .  A
C1295      C1296   1.406       .  A
C1296      H1304   1.084       .  S
H1297      C2729   1.083       .  S
C1305      H1321   1.083       .  S
C1305      C1306   1.400       .  A
C1305      C1310   1.404       .  A
C1306      C1307   1.403       .  A
C1307      C1308   1.412       .  A
C1308      C1314   1.412       .  A
C1308      C1309   1.413       .  A
C1309      C1311   1.411       .  A
C1309      C1310   1.411       .  A
C1310      C1318   1.406       .  A
C1311      C1320   1.404       .  A
C1311      C1312   1.404       .  A
C1312      H1323   1.084       .  S
C1312      C1313   1.399       .  A
C1313      H1324   1.083       .  S
C1313      C1314   1.403       .  A
C1314      C1315   1.403       .  A
C1315      H1325   1.084       .  S
C1316      C1317   1.406       .  A
C1317      H1326   1.084       .  S
C1318      H1327   1.084       .  S
C1318      C1319   1.409       .  A
C1319      C1320   1.410       .  A
C1320      H1328   1.084       .  S
C1329      H2793   1.083   1_455  S
C1329      C1330   1.399       .  A
C1329      C1334   1.404       .  A
C1330      H1346   1.084       .  S
C1330      C1331   1.404       .  A
C1331      C1341   1.403       .  A
C1331      C1332   1.411       .  A
C1332      C1338   1.411       .  A
C1332      C1333   1.412       .  A
C1333      C1335   1.413       .  A
C1333      C1334   1.412       .  A
C1334      C1342   1.403       .  A
C1335      C1344   1.403       .  A
C1335      C1336   1.403       .  A
C1336      H1347   1.084       .  S
C1336      C1337   1.399       .  A
C1337      H1348   1.083       .  S
C1337      C1338   1.404       .  A
C1338      C1339   1.404       .  A
C1339      H1349   1.084       .  S
C1339      C1340   1.408       .  A
C1340      C1341   1.409       .  A
C1341      H1350   1.084       .  S
C1342      H1351   1.084       .  S
C1342      C1343   1.405       .  A
C1343      C1344   1.402       .  A
C1344      H1352   1.085       .  S
H1345      C2777   1.083       .  S
C1353      H1369   1.084       .  S
C1353      C2802   1.399       .  A
C1353      C1358   1.404       .  A
C1354      H1370   1.084       .  S
C1354      C2801   1.399       .  A
C1354      C2803   1.403       .  A
C1355      C2802   1.403       .  A
C1355      C2813   1.402       .  A
C1355      C1356   1.411       .  A
C1356      C1362   1.413       .  A
C1356      C1357   1.413       .  A
C1357      C1359   1.411       .  A
C1357      C1358   1.412       .  A
C1358      C1366   1.404       .  A
C1359      C1368   1.404       .  A
C1359      C1360   1.404       .  A
C1360      H1371   1.084       .  S
C1360      C1361   1.400       .  A
C1361      H1372   1.083       .  S
C1361      C1362   1.403       .  A
C1362      C1363   1.405       .  A
C1363      H1373   1.084       .  S
C1363      C1364   1.403       .  A
C1364      C2335   1.482       .  S
C1364      C2813   1.405       .  A
C1365      H1374   1.084       .  S
C1365      C2803   1.402       .  A
C1365      C2812   1.405       .  A
C1366      H1375   1.084       .  S
C1366      C1367   1.408       .  A
C1367      C1368   1.409       .  A
C1368      H1376   1.084       .  S
C1377      H1393   1.084       .  S
C1377      C1378   1.400       .  A
C1377      C1382   1.403       .  A
C1378      H1394   1.083       .  S
C1378      C1379   1.404       .  A
C1379      C1389   1.407       .  A
C1379      C1380   1.413       .  A
C1380      C1386   1.410       .  A
C1380      C1381   1.414       .  A
C1381      C1383   1.413       .  A
C1381      C1382   1.411       .  A
C1382      C1390   1.403       .  A
C1383      C1392   1.406       .  A
C1383      C1384   1.404       .  A
C1384      H1395   1.083       .  S
C1384      C1385   1.400       .  A
C1385      H1396   1.084       .  S
C1385      C1386   1.405       .  A
C1386      C1387   1.404       .  A
C1387      H1397   1.084       .  S
C1387      C1388   1.411       .  A
C1388      C1389   1.407       .  A
C1389      H1398   1.084       .  S
C1390      H1399   1.084       .  S
C1390      C1391   1.404       .  A
C1391      C1392   1.406       .  A
C1392      H1400   1.084       .  S
C1401      H1417   1.084       .  S
C1401      C1402   1.402       .  A
C1401      C1406   1.404       .  A
C1402      H1418   1.084       .  S
C1402      C1403   1.405       .  A
C1403      C1413   1.407       .  A
C1403      C1404   1.411       .  A
C1404      C1410   1.412       .  A
C1404      C1405   1.415       .  A
C1405      C1407   1.412       .  A
C1405      C1406   1.413       .  A
C1406      C1414   1.408       .  A
C1407      C1416   1.404       .  A
C1407      C1408   1.403       .  A
C1408      H1419   1.084       .  S
C1408      C1409   1.399       .  A
C1409      H1420   1.083       .  S
C1409      C1410   1.403       .  A
C1410      C1411   1.404       .  A
C1411      H1421   1.084       .  S
C1411      C1412   1.407       .  A
C1412      C1413   1.412       .  A
C1413      H1422   1.084       .  S
C1414      H1423   1.084       .  S
C1414      C1415   1.406       .  A
C1415      C1416   1.404       .  A
C1416      H1424   1.084       .  S
C1425      H1441   1.083       .  S
C1425      C1426   1.399       .  A
C1425      C1430   1.404       .  A
C1426      H1442   1.084       .  S
C1426      C1427   1.403       .  A
C1427      C1437   1.402       .  A
C1427      C1428   1.412       .  A
C1428      C2882   1.413       .  A
C1428      C1429   1.412       .  A
C1429      C1431   1.411       .  A
C1429      C1430   1.411       .  A
C1430      C1438   1.403       .  A
C1431      C1440   1.403       .  A
C1431      C2880   1.403       .  A
C1432      H1443   1.084       .  S
C1432      C2879   1.403   1_455  A
C1432      C1433   1.399       .  A
C1433      H1444   1.083       .  S
C1433      C1434   1.403       .  A
C1434      C2876   1.413   1_455  A
C1434      C1435   1.403       .  A
C1435      H1445   1.084       .  S
C1435      C1436   1.402       .  A
C1436      C2885   1.403   1_455  A
C1437      H1446   1.085       .  S
C1437      C2884   1.403       .  A
C1438      H1447   1.084       .  S
C1438      C1439   1.410       .  A
C1439      C1440   1.407       .  A
C1440      H1448   1.084       .  S
C1449      N1450   1.360       .  A
C1449      N1454   1.361       .  A
C1449      C2163   1.484       .  S
N1450      C1451   1.357       .  A
C1451      N1452   1.358       .  A
C1451      C1473   1.466       .  S
N1452      C1453   1.357       .  A
C1453      N1454   1.359       .  A
C1453      C1580   1.468       .  S
C1455      N1456   1.362       .  A
C1455      N1460   1.364       .  A
C1455      C2136   1.485       .  S
N1456      C1457   1.356       .  A
C1457      N1458   1.354       .  A
C1457      C1503   1.464       .  S
N1458      C1459   1.356       .  A
C1459      N1460   1.361       .  A
C1459      C1550   1.466       .  S
C1461      N1462   1.360       .  A
C1461      N1466   1.365       .  A
C1461      C2112   1.487       .  S
N1462      C1463   1.356       .  A
C1463      N1464   1.356       .  A
C1463      C1590   1.464       .  S
N1464      C1465   1.358       .  A
C1465      N1466   1.362       .  A
C1465      C1523   1.470       .  S
C1467      N1468   1.360       .  A
C1467      N1472   1.356       .  A
C1467      C2091   1.485       .  S
N1468      C1469   1.361       .  A
C1469      N1470   1.361       .  A
C1469      C1513   1.471       .  S
N1470      C1471   1.360       .  A
C1471      N1472   1.357       .  A
C1471      C1600   1.467       .  S
C1473      C1510   1.455       .  S
N1474      N1491   1.326       .  A
N1474     Co1511   2.087       .  S
C1475      N1500   1.340       .  A
C1475      H1520   1.082       .  S
H1476      C1517   1.082       .  S
C1477      N1501   1.339       .  A
C1477      C1481   1.458       .  S
C1477      H1506   1.082       .  S
Co1478     N1496   2.089       .  S
Co1478     N1486   2.076       .  S
Co1478     N2242   2.071       .  S
Co1478     N2218   2.096       .  S
N1479      C1517   1.344       .  A
N1479     Co1480   2.088       .  S
Co1480     N1483   2.072       .  S
Co1480     N2224   2.073       .  S
Co1480     N2211   2.091       .  S
Co1480    Cl1522   2.474       .  S
C1481      N1519   1.346       .  A
C1481      C1528   1.460       .  S
N1482      N1489   1.320       .  A
N1482      N1512   1.323       .  A
N1482     Co1515   2.083       .  S
N1483      N1501   1.322       .  A
N1483      N1519   1.324       .  A
N1484      C1513   1.352       .  A
N1484      N1494   1.328       .  A
H1485      C1510   1.082       .  S
N1486      N1507   1.323       .  A
N1487      N1505   1.320       .  A
N1487      N1492   1.328       .  A
N1487     Co2204   2.088   1_545  S
C1488      N1492   1.350       .  A
C1488      C1516   1.455       .  S
C1488      C1548   1.466       .  S
N1489      C1504   1.347       .  A
N1489     Co1511   2.094       .  S
C1490      N1518   1.336       .  A
C1490      C1493   1.454       .  S
C1490      H1524   1.082       .  S
C1493      C1536   1.464       .  S
N1494     Co2202   2.104   1_545  S
N1495      C1521   1.341       .  A
N1495      N1497   1.322       .  A
N1495     Co2235   2.080   1_545  S
N1496      C1510   1.339       .  A
N1497      N1525   1.325       .  A
N1497     Co2239   2.097   1_545  S
H1498      C1521   1.082       .  S
H1499      C1516   1.082       .  S
N1500     Co2204   2.079   1_545  S
N1501     Co1515   2.092       .  S
N1502      N1514   1.328       .  A
N1502     Co2235   2.088   1_545  S
C1503      N1507   1.347       .  A
C1504      C1523   1.463       .  S
C1504      H1508   1.082       .  S
N1505      C1516   1.338       .  A
N1505     Co2239   2.079   1_545  S
C1509      N1525   1.350       .  A
C1509      C1521   1.457       .  S
C1509      C1542   1.466       .  S
Co1511     N2219   2.080       .  S
Co1511     N2226   2.095       .  S
Co1511    Cl1522   2.478       .  S
N1512      C1523   1.347       .  A
Co1515     N2221   2.096       .  S
Co1515     N2229   2.084       .  S
Co1515    Cl1522   2.429       .  S
N1518     Co2202   2.075   1_545  S
C1526      N1527   1.362       .  A
C1526      N1531   1.364       .  A
C1526      C2064   1.487       .  S
N1527      C1528   1.358       .  A
C1528      N1529   1.351       .  A
N1529      C1530   1.352       .  A
C1530      N1531   1.360       .  A
C1530      C1570   1.464       .  S
C1532      N1533   1.365       .  A
C1532      N1537   1.365       .  A
C1532      C2043   1.489       .  S
N1533      C1534   1.359       .  A
C1534      N1535   1.352       .  A
C1534      C1558   1.466       .  S
N1535      C1536   1.353       .  A
C1536      N1537   1.360       .  A
C1538      N1539   1.363       .  A
C1538      N1543   1.362       .  A
C1538      C2016   1.492       .  S
N1539      C1540   1.362       .  A
C1540      N1541   1.355       .  A
C1540      C1565   1.467       .  S
N1541      C1542   1.354       .  A
C1542      N1543   1.358       .  A
C1544      N1545   1.362       .  A
C1544      N1549   1.364       .  A
C1544      C1995   1.490       .  S
N1545      C1546   1.357       .  A
C1546      N1547   1.353       .  A
C1546      C1586   1.462       .  S
N1547      C1548   1.355       .  A
C1548      N1549   1.360       .  A
C1550      N1568   1.352       .  A
C1550      C1587   1.452       .  S
N1551      N1568   1.329       .  A
N1551      N1573   1.319       .  A
N1551     Co1588   2.092       .  S
C1552      N1577   1.342       .  A
C1552      C1590   1.460       .  S
C1552      H1597   1.082       .  S
H1553      C1594   1.082       .  S
C1554      N1578   1.337       .  A
C1554      C1558   1.453       .  S
C1554      H1583   1.082       .  S
Co1555     N1573   2.074       .  S
Co1555     N1563   2.102       .  S
Co1555     N1595   2.096       .  S
Co1555     N1571   2.079       .  S
Co1555    Cl1599   2.429       .  S
N1556      C1594   1.339       .  A
N1556      N1563   1.322       .  A
N1556     Co1557   2.078       .  S
Co1557     N1560   2.092       .  S
Co1557     N1577   2.085       .  S
Co1557     N1564   2.075       .  S
Co1557    Cl1599   2.473       .  S
C1558      N1596   1.352       .  A
N1559      N1566   1.322       .  A
N1559      N1589   1.328       .  A
N1559     Co1592   2.102       .  S
N1560      N1578   1.320       .  A
N1560      N1596   1.329       .  A
N1561      C1590   1.348       .  A
N1561      N1571   1.324       .  A
H1562      C1587   1.082       .  S
N1563      N1584   1.326       .  A
N1564      N1582   1.322       .  A
N1564      N1569   1.325       .  A
C1565      N1569   1.347       .  A
C1565      C1593   1.461       .  S
N1566      C1581   1.337       .  A
N1566     Co1588   2.076       .  S
C1567      N1595   1.338       .  A
C1567      C1570   1.459       .  S
C1567      H1601   1.082       .  S
C1570      N1591   1.347       .  A
N1571      N1577   1.319       .  A
N1572      C1598   1.343       .  A
N1572      N1574   1.319       .  A
N1572     Co1588   2.081       .  S
N1573      C1587   1.336       .  A
N1574      N1602   1.323       .  A
N1574     Co1592   2.080       .  S
H1575      C1598   1.082       .  S
H1576      C1593   1.082       .  S
N1578     Co1592   2.076       .  S
N1579      N1591   1.326       .  A
N1579      N1595   1.322       .  A
N1579     Co1588   2.075       .  S
C1580      N1584   1.352       .  A
C1580      C1594   1.456       .  S
C1581      C1600   1.455       .  S
C1581      H1585   1.082       .  S
N1582      C1593   1.341       .  A
N1582     Co1592   2.100       .  S
C1586      N1602   1.347       .  A
C1586      C1598   1.458       .  S
Co1588    Cl1599   2.475       .  S
N1589      C1600   1.352       .  A
Co1592    Cl1599   2.431       .  S
C1603      C2040   1.481       .  S
C1603      C1604   1.416       .  A
C1603      C1608   1.402       .  A
C1604      C2115   1.482       .  S
C1604      C1605   1.406       .  A
C1605      H1610   1.084       .  S
C1605      C1606   1.402       .  A
C1606      C1968   1.485       .  S
C1606      C1607   1.413       .  A
C1607      C1944   1.476       .  S
C1607      C1608   1.400       .  A
C1608      H2333   1.084       .  S
H1609      C2332   1.084   1_545  S
C1611      C1612   1.413       .  A
C1612      C2067   1.480       .  S
C1612      C1613   1.402       .  A
C1613      H1618   1.084       .  S
C1613      C1614   1.403       .  A
C1614      C1896   1.481   1_554  S
C1614      C1615   1.417   1_554  A
C1616      H1617   1.084   1_455  S
C1619      C2019   1.485       .  S
C1619      C1620   1.412       .  A
C1619      C1624   1.402       .  A
C1620      C2160   1.478       .  S
C1620      C1621   1.402       .  A
C1621      C1622   1.405       .  A
C1622      C1872   1.485       .  S
C1622      C1623   1.419       .  A
C1623      C1848   1.486       .  S
C1623      C1624   1.409       .  A
C1624      H1625   1.084       .  S
C1627      C2139   1.485       .  S
C1627      C1628   1.418       .  A
C1627      C1632   1.406       .  A
C1628      C1992   1.481       .  S
C1628      C1629   1.403       .  A
C1629      H2358   1.085       .  S
C1629      C1630   1.399       .  A
C1630      C1803   1.479   1_554  S
C1630      C1631   1.410       .  A
C1631      C1827   1.479   1_554  S
C1631      C1632   1.402       .  A
C1632      H1633   1.084       .  S
H1634      C2353   1.084   1_545  S
C1635      N1636   1.361       .  A
C1635      N1640   1.362       .  A
C1635      C1824   1.486       .  S
N1636      C1637   1.358       .  A
C1637      N1638   1.354       .  A
C1637      C1766   1.465       .  S
N1638      C1639   1.356       .  A
C1639      N1640   1.360       .  A
C1639      C1671   1.465       .  S
C1641      N1642   1.363       .  A
C1641      N1646   1.362       .  A
C1641      C1923   1.481       .  S
N1642      C1643   1.359       .  A
C1643      N1644   1.353       .  A
C1643      C1691   1.462       .  S
N1644      C1645   1.352       .  A
C1645      N1646   1.356       .  A
C1645      C1744   1.459       .  S
C1647      N1648   1.364       .  A
C1647      N1652   1.361       .  A
C1647      C1800   1.487       .  S
N1648      C1649   1.362       .  A
C1649      N1650   1.356       .  A
C1649      C1751   1.470       .  S
N1650      C1651   1.355       .  A
C1651      N1652   1.357       .  A
C1651      C1707   1.467       .  S
C1653      N1654   1.360       .  A
C1653      N1658   1.362       .  A
C1653      C1899   1.486       .  S
N1654      C1655   1.356       .  A
C1655      N1656   1.358       .  A
C1655      C1776   1.467       .  S
N1656      C1657   1.360       .  A
C1657      N1658   1.359       .  A
C1657      C1721   1.468       .  S
C1659      N1660   1.361       .  A
C1659      N1664   1.363       .  A
C1659      C1851   1.481       .  S
N1660      C1661   1.356       .  A
C1661      N1662   1.355       .  A
C1661      C1686   1.464       .  S
N1662      C1663   1.356       .  A
C1663      N1664   1.360       .  A
C1663      C1772   1.466       .  S
C1665      N1666   1.357       .  A
C1665      N1670   1.359       .  A
C1665      C1947   1.486       .  S
N1666      C1667   1.357       .  A
C1667      N1668   1.359       .  A
C1667      C1786   1.467       .  S
N1668      C1669   1.360       .  A
C1669      N1670   1.360       .  A
C1669      C1711   1.469       .  S
C1671      N1689   1.349       .  A
C1671      C1708   1.457       .  S
N1672      N1689   1.326       .  A
N1672      N1694   1.323       .  A
N1672     Co1709   2.081       .  S
C1673      N1698   1.338       .  A
C1673      C1711   1.455       .  S
C1673      H1718   1.082       .  S
H1674      C1715   1.082       .  S
C1675      N1699   1.340       .  A
C1675      C1679   1.459       .  S
C1675      H1704   1.082       .  S
Co1676     N1694   2.094       .  S
Co1676     N1684   2.081       .  S
Co1676     N1716   2.073       .  S
Co1676     N1692   2.102       .  S
Co1676    Cl1720   2.428       .  S
N1677      C1715   1.344       .  A
N1677      N1684   1.319       .  A
N1677     Co1678   2.085       .  S
Co1678     N1681   2.079       .  S
Co1678     N1698   2.075       .  S
Co1678     N1685   2.089       .  S
Co1678    Cl1720   2.473       .  S
C1679      N1717   1.348       .  A
C1679      C1734   1.466       .  S
N1680      N1687   1.319       .  A
N1680      N1710   1.323       .  A
N1680     Co1713   2.078       .  S
N1681      N1699   1.322       .  A
N1681      N1717   1.325       .  A
N1682      C1711   1.352       .  A
N1682      N1692   1.328       .  A
H1683      C1708   1.082       .  S
N1684      N1705   1.323       .  A
N1685      N1703   1.319       .  A
N1685      N1690   1.327       .  A
C1686      N1690   1.351       .  A
C1686      C1714   1.454       .  S
N1687      C1702   1.345       .  A
N1687     Co1709   2.095       .  S
C1688      N1716   1.336       .  A
C1688      C1691   1.452       .  S
C1688      H1722   1.082       .  S
C1691      N1712   1.351       .  A
N1692      N1698   1.321       .  A
N1693      C1719   1.341       .  A
N1693      N1695   1.321       .  A
N1693     Co1709   2.081       .  S
N1694      C1708   1.339       .  A
N1695      N1723   1.325       .  A
N1695     Co1713   2.096       .  S
H1696      C1719   1.082       .  S
H1697      C1714   1.082       .  S
N1699     Co1713   2.094       .  S
N1700      N1712   1.328       .  A
N1700      N1716   1.320       .  A
N1700     Co1709   2.090       .  S
C1701      N1705   1.347       .  A
C1701      C1715   1.460       .  S
C1701      C1728   1.465       .  S
C1702      C1721   1.464       .  S
C1702      H1706   1.082       .  S
N1703      C1714   1.338       .  A
N1703     Co1713   2.073       .  S
C1707      N1723   1.350       .  A
C1707      C1719   1.458       .  S
Co1709    Cl1720   2.477       .  S
N1710      C1721   1.346       .  A
Co1713    Cl1720   2.429       .  S
C1724      N1725   1.367       .  A
C1724      N1729   1.364       .  A
C1724      C1875   1.493       .  S
N1725      C1726   1.362       .  A
C1726      N1727   1.355       .  A
C1726      C1736   1.471       .  S
N1727      C1728   1.354       .  A
C1728      N1729   1.358       .  A
C1730      N1731   1.361       .  A
C1730      N1735   1.362       .  A
C1730      C1971   1.482       .  S
N1731      C1732   1.358       .  A
C1732      N1733   1.355       .  A
C1732      C1756   1.462       .  S
N1733      C1734   1.354       .  A
C1734      N1735   1.358       .  A
C1736      N1754   1.353       .  A
C1736      C1773   1.455       .  S
N1737      N1754   1.330       .  A
N1737      N1759   1.320       .  A
C1738      N1763   1.343       .  A
C1738      C1776   1.461       .  S
C1738      H1783   1.082       .  S
H1739      C1780   1.082       .  S
C1740      N1764   1.336       .  A
C1740      C1744   1.453       .  S
C1740      H1769   1.082       .  S
Co1741     N1781   2.089       .  S
Co1741     N1757   2.085       .  S
Co1741    Cl1785   2.431       .  S
N1742      C1780   1.339       .  A
N1742      N1749   1.321       .  A
Co1743     N1763   2.086       .  S
Co1743     N2474   2.083       .  S
Co1743    Cl1785   2.473       .  S
C1744      N1782   1.349       .  A
N1745      N1752   1.322       .  A
N1745      N1775   1.328       .  A
N1746      N1764   1.319       .  A
N1746      N1782   1.326       .  A
N1747      C1776   1.348       .  A
N1747      N1757   1.325       .  A
H1748      C1773   1.082       .  S
N1749      N1770   1.326       .  A
N1750      N1768   1.322       .  A
N1750      N1755   1.326       .  A
N1750     Co2467   2.077   1_545  S
C1751      N1755   1.348       .  A
C1751      C1779   1.462       .  S
N1752      C1767   1.337       .  A
C1753      N1781   1.338       .  A
C1753      C1756   1.456       .  S
C1753      H1787   1.082       .  S
C1756      N1777   1.348       .  A
N1757      N1763   1.319       .  A
N1758      C1784   1.346       .  A
N1758      N1760   1.320       .  A
N1758     Co2498   2.093   1_545  S
N1759      C1773   1.338       .  A
N1760      N1788   1.322       .  A
N1760     Co1778   2.077       .  S
H1761      C1784   1.082   1_565  S
H1762      C1779   1.082       .  S
N1765      N1777   1.325       .  A
N1765      N1781   1.322       .  A
N1765     Co1774   2.077       .  S
C1766      N1770   1.351       .  A
C1766      C1780   1.454       .  S
C1767      C1786   1.454       .  S
C1767      H1771   1.082   1_545  S
N1768      C1779   1.342       .  A
N1768     Co1778   2.103       .  S
C1772      N1788   1.346       .  A
C1772      C1784   1.462       .  S
Co1774     N2482   2.093       .  S
Co1774    Cl1785   2.475       .  S
N1775      C1786   1.352       .  A
Co1778    Cl2509   2.431   1_545  S
Cl1785    Co2502   2.431       .  S
C1789      H1805   1.083       .  S
C1789      C1790   1.400       .  A
C1789      C1794   1.404       .  A
C1790      H1806   1.084       .  S
C1790      C2515   1.404       .  A
C1791      C2514   1.404   1_545  A
C1791      C1801   1.407       .  A
C1791      C1792   1.413       .  A
C1792      C1798   1.410       .  A
C1792      C1793   1.414       .  A
C1793      C1795   1.413       .  A
C1793      C2518   1.411   1_545  A
C1794      C2517   1.411       .  A
C1794      C1802   1.403       .  A
C1795      C1804   1.404       .  A
C1795      C1796   1.403       .  A
C1796      H1807   1.084       .  S
C1796      C1797   1.399       .  A
C1797      H1808   1.083       .  S
C1797      C1798   1.404       .  A
C1798      C1799   1.403       .  A
C1799      H1809   1.084       .  S
C1799      C1800   1.409       .  A
C1800      C1801   1.408       .  A
C1801      H1810   1.084   1_545  S
C1802      H1811   1.084       .  S
C1802      C1803   1.405       .  A
C1803      C2528   1.402       .  A
C1804      H1812   1.085       .  S
C1804      C2527   1.403   1_545  A
C1813      H1829   1.084       .  S
C1813      C1814   1.400       .  A
C1813      C1818   1.403       .  A
C1814      H1830   1.083       .  S
C1814      C1815   1.404       .  A
C1815      C1825   1.405       .  A
C1815      C1816   1.411       .  A
C1816      C1822   1.411       .  A
C1816      C1817   1.412       .  A
C1817      C1819   1.411       .  A
C1817      C1818   1.413       .  A
C1818      C1826   1.404       .  A
C1819      C1828   1.401       .  A
C1819      C1820   1.403       .  A
C1820      H1831   1.083       .  S
C1820      C1821   1.399       .  A
C1821      H1832   1.084       .  S
C1821      C1822   1.404       .  A
C1822      C1823   1.403       .  A
C1823      H1833   1.084       .  S
C1823      C1824   1.409       .  A
C1824      C1825   1.409       .  A
C1825      H1834   1.084       .  S
C1826      H1835   1.085       .  S
C1826      C1827   1.403       .  A
C1827      C1828   1.404       .  A
C1828      H1836   1.084       .  S
C1837      H1853   1.084       .  S
C1837      C1838   1.399       .  A
C1837      C1842   1.404       .  A
C1838      H1854   1.083       .  S
C1838      C1839   1.403       .  A
C1839      C1849   1.403       .  A
C1839      C1840   1.412       .  A
C1840      C1846   1.412       .  A
C1840      C1841   1.413       .  A
C1841      C1843   1.412       .  A
C1841      C1842   1.411       .  A
C1842      C1850   1.402       .  A
C1843      C1852   1.406       .  A
C1843      C1844   1.404       .  A
C1844      H1855   1.083       .  S
C1844      C1845   1.400       .  A
C1845      H1856   1.084       .  S
C1845      C1846   1.404       .  A
C1846      C1847   1.404       .  A
C1847      H1857   1.085       .  S
C1847      C1848   1.406       .  A
C1848      C1849   1.406       .  A
C1849      H1858   1.083       .  S
C1850      H1859   1.085       .  S
C1850      C1851   1.408       .  A
C1851      C1852   1.406       .  A
C1852      H1860   1.084       .  S
C1861      H1877   1.084       .  S
C1861      C1862   1.401       .  A
C1861      C1866   1.405       .  A
C1862      H1878   1.083       .  S
C1862      C1863   1.404       .  A
C1863      C1873   1.408       .  A
C1863      C1864   1.413       .  A
C1864      C1870   1.412   1_655  A
C1864      C1865   1.416       .  A
C1865      C1867   1.412       .  A
C1865      C1866   1.410       .  A
C1866      C1874   1.407       .  A
C1867      C1876   1.407       .  A
C1867      C1868   1.404       .  A
C1868      H1879   1.083   1_655  S
C1868      C1869   1.400   1_655  A
C1869      H1880   1.084       .  S
C1869      C1870   1.403       .  A
C1870      C1871   1.405       .  A
C1871      H1881   1.085       .  S
C1874      H1883   1.084       .  S
C1874      C1875   1.412       .  A
C1875      C1876   1.409       .  A
C1876      H1884   1.084       .  S
C1885      H1901   1.084       .  S
C1885      C1886   1.398       .  A
C1885      C1890   1.404       .  A
C1886      H1902   1.083       .  S
C1886      C1887   1.403       .  A
C1887      C1897   1.402       .  A
C1887      C1888   1.412       .  A
C1888      C1894   1.412       .  A
C1888      C1889   1.413       .  A
C1889      C1891   1.412       .  A
C1889      C1890   1.411       .  A
C1890      C1898   1.402       .  A
C1891      C1900   1.406       .  A
C1891      C1892   1.404       .  A
C1892      H1903   1.083       .  S
C1892      C1893   1.401       .  A
C1893      H1904   1.084       .  S
C1893      C1894   1.404       .  A
C1894      C1895   1.405       .  A
C1895      H1905   1.084       .  S
C1895      C1896   1.405       .  A
C1896      C1897   1.403       .  A
C1897      H1906   1.084       .  S
C1898      H1907   1.084       .  S
C1898      C1899   1.409       .  A
C1899      C1900   1.408       .  A
C1900      H1908   1.084       .  S
C1909      H1925   1.084       .  S
C1909      C1910   1.399       .  A
C1910      H1926   1.083       .  S
C1910      C1911   1.403       .  A
C1911      C1921   1.403       .  A
C1912      C1918   1.412       .  A
C1912      C1913   1.412       .  A
C1913      C1915   1.412       .  A
C1913      C1914   1.411       .  A
C1914      C1922   1.402       .  A
C1915      C1924   1.405       .  A
C1915      C1916   1.404       .  A
C1916      H1927   1.083       .  S
C1916      C1917   1.399       .  A
C1917      H1928   1.084       .  S
C1917      C1918   1.403       .  A
C1918      C1919   1.403       .  A
C1919      H1929   1.085       .  S
C1919      C1920   1.405   1_655  A
C1921      H1930   1.084       .  S
C1922      H1931   1.084       .  S
C1922      C1923   1.409       .  A
C1923      C1924   1.406       .  A
C1924      H1932   1.084       .  S
C1933      H1949   1.084       .  S
C1933      C1934   1.400       .  A
C1933      C1938   1.404       .  A
C1934      H1950   1.083       .  S
C1934      C1935   1.404       .  A
C1935      C1945   1.403       .  A
C1935      C1936   1.411       .  A
C1936      C2666   1.413   1_545  A
C1936      C1937   1.413       .  A
C1937      C1939   1.410       .  A
C1937      C1938   1.412       .  A
C1938      C1946   1.405       .  A
C1939      C1948   1.403       .  A
C1939      C2664   1.404   1_545  A
C1940      H1951   1.083       .  S
C1940      C2663   1.404       .  A
C1940      C1941   1.398       .  A
C1941      H1952   1.084       .  S
C1941      C1942   1.402       .  A
C1942      C2660   1.414       .  A
C1942      C1943   1.402       .  A
C1943      H1953   1.085       .  S
C1943      C1944   1.402       .  A
C1944      C2669   1.404       .  A
C1945      H1954   1.084       .  S
C1945      C2668   1.406   1_545  A
C1946      H1955   1.084       .  S
C1946      C1947   1.408       .  A
C1947      C1948   1.409       .  A
C1948      H1956   1.084       .  S
C1957      H1973   1.084       .  S
C1957      C1958   1.398       .  A
C1957      C1962   1.403       .  A
C1958      H1974   1.083       .  S
C1958      C1959   1.403       .  A
C1959      C1969   1.400       .  A
C1959      C1960   1.411       .  A
C1960      C1966   1.413       .  A
C1960      C1961   1.412       .  A
C1961      C1963   1.411       .  A
C1961      C1962   1.412       .  A
C1962      C1970   1.402       .  A
C1963      C1972   1.406       .  A
C1963      C1964   1.405       .  A
C1964      H1975   1.083       .  S
C1964      C1965   1.401       .  A
C1965      H1976   1.084       .  S
C1965      C1966   1.404       .  A
C1966      C1967   1.406       .  A
C1967      H1977   1.084       .  S
C1967      C1968   1.405       .  A
C1968      C1969   1.405       .  A
C1969      H1978   1.084       .  S
C1970      H1979   1.084       .  S
C1970      C1971   1.406       .  A
C1971      C1972   1.409       .  A
C1972      H1980   1.084       .  S
C1981      H1997   1.084       .  S
C1981      C1982   1.398       .  A
C1981      C2710   1.403       .  A
C1982      H1998   1.083       .  S
C1982      C1983   1.402       .  A
C1983      C1993   1.402       .  A
C1983      C2708   1.412       .  A
C1984      C2707   1.412   1_545  A
C1984      C1990   1.412       .  A
C1984      C1985   1.414       .  A
C1985      C1987   1.410       .  A
C1985      C1986   1.411       .  A
C1986      C2705   1.404       .  A
C1986      C1994   1.406       .  A
C1987      C1996   1.403       .  A
C1987      C1988   1.404       .  A
C1988      H1999   1.083       .  S
C1988      C1989   1.399       .  A
C1989      H2000   1.084       .  S
C1989      C1990   1.403       .  A
C1990      C1991   1.403       .  A
C1991      H2001   1.085       .  S
C1991      C2716   1.403   1_545  A
C1992      C2715   1.406       .  A
C1992      C1993   1.403       .  A
C1993      H2002   1.084       .  S
C1994      H2003   1.084       .  S
C1994      C1995   1.410       .  A
C1995      C1996   1.410       .  A
C1996      H2004   1.084       .  S
C2005      C2006   1.400       .  A
C2005      C2010   1.403       .  A
C2006      H2022   1.084       .  S
C2006      C2007   1.404       .  A
C2007      C2017   1.404       .  A
C2007      C2008   1.410       .  A
C2008      C2014   1.412       .  A
C2008      C2009   1.415       .  A
C2009      C2011   1.411       .  A
C2009      C2010   1.413       .  A
C2010      C2018   1.406       .  A
C2011      C2020   1.405       .  A
C2011      C2012   1.404       .  A
C2012      H2023   1.084       .  S
C2012      C2013   1.401       .  A
C2013      H2024   1.083       .  S
C2013      C2014   1.405       .  A
C2014      C2015   1.408       .  A
C2015      H2025   1.084       .  S
C2015      C2016   1.411       .  A
C2016      C2017   1.410       .  A
C2017      H2026   1.084       .  S
C2018      H2027   1.084       .  S
C2018      C2019   1.404       .  A
C2019      C2020   1.405       .  A
C2020      H2028   1.084       .  S
C2029      H2045   1.083   1_545  S
C2029      C2030   1.402   1_545  A
C2029      C2034   1.405       .  A
C2030      H2770   1.084       .  S
C2030      C2031   1.404       .  A
C2031      C2765   1.407       .  A
C2031      C2032   1.412   1_565  A
C2032      C2038   1.412       .  A
C2032      C2033   1.414       .  A
C2033      C2035   1.411       .  A
C2033      C2034   1.412       .  A
C2034      C2042   1.409       .  A
C2035      C2044   1.403       .  A
C2035      C2036   1.404       .  A
C2036      H2047   1.084       .  S
C2036      C2037   1.398       .  A
C2037      H2048   1.083       .  S
C2037      C2038   1.403       .  A
C2038      C2039   1.403       .  A
C2039      H2049   1.084       .  S
C2039      C2764   1.404   1_545  A
C2040      C2763   1.404       .  A
C2040      C2041   1.404       .  A
C2041      H2050   1.085       .  S
C2041      C2755   1.405       .  A
C2042      H2051   1.084       .  S
C2042      C2043   1.410       .  A
C2043      C2044   1.408       .  A
C2044      H2052   1.084       .  S
H2046      C2754   1.084       .  S
C2053      C2054   1.400       .  A
C2053      C2058   1.404       .  A
C2054      H2070   1.084       .  S
C2054      C2055   1.404       .  A
C2055      C2065   1.405       .  A
C2055      C2056   1.411       .  A
C2056      C2062   1.411       .  A
C2056      C2057   1.413       .  A
C2057      C2059   1.413       .  A
C2057      C2058   1.412       .  A
C2058      C2066   1.403       .  A
C2059      C2068   1.403       .  A
C2059      C2060   1.403       .  A
C2060      H2071   1.084       .  S
C2060      C2061   1.399       .  A
C2061      H2072   1.083       .  S
C2061      C2062   1.404       .  A
C2062      C2063   1.404       .  A
C2063      H2073   1.084       .  S
C2063      C2064   1.408       .  A
C2064      C2065   1.410       .  A
C2065      H2074   1.084       .  S
C2066      H2075   1.084       .  S
C2066      C2067   1.405       .  A
C2067      C2068   1.402       .  A
C2068      H2076   1.085       .  S
C2077      H2093   1.084       .  S
C2077      C2082   1.403   1_455  A
C2078      H2094   1.084       .  S
C2079      C2080   1.411   1_455  A
C2080      C2086   1.413       .  A
C2080      C2081   1.413       .  A
C2081      C2083   1.410       .  A
C2081      C2082   1.412       .  A
C2082      C2090   1.403       .  A
C2083      C2092   1.405       .  A
C2083      C2084   1.405       .  A
C2084      H2095   1.084       .  S
C2084      C2085   1.401       .  A
C2085      H2096   1.083       .  S
C2085      C2086   1.404       .  A
C2086      C2087   1.407       .  A
C2087      H2097   1.084       .  S
C2087      C2088   1.405   1_655  A
C2089      H2098   1.085       .  S
C2090      H2099   1.084       .  S
C2090      C2091   1.406       .  A
C2091      C2092   1.410       .  A
C2092      H2100   1.084       .  S
C2101      H2117   1.084       .  S
C2101      C2102   1.400       .  A
C2101      C2106   1.403       .  A
C2102      H2118   1.083       .  S
C2102      C2103   1.404       .  A
C2103      C2113   1.406       .  A
C2103      C2104   1.413       .  A
C2104      C2110   1.410       .  A
C2104      C2105   1.413       .  A
C2105      C2107   1.413       .  A
C2105      C2106   1.412       .  A
C2106      C2114   1.403       .  A
C2107      C2116   1.404       .  A
C2107      C2108   1.403       .  A
C2108      H2119   1.084       .  S
C2108      C2109   1.400       .  A
C2109      H2120   1.084       .  S
C2109      C2110   1.405       .  A
C2110      C2111   1.403       .  A
C2111      H2121   1.084       .  S
C2111      C2112   1.411       .  A
C2112      C2113   1.407       .  A
C2113      H2122   1.084       .  S
C2114      H2123   1.084       .  S
C2114      C2115   1.404       .  A
C2115      C2116   1.405       .  A
C2116      H2124   1.084       .  S
C2125      H2141   1.083       .  S
C2125      C2126   1.401       .  A
C2125      C2130   1.405       .  A
C2126      H2142   1.084       .  S
C2126      C2127   1.404       .  A
C2127      C2137   1.408       .  A
C2127      C2128   1.412       .  A
C2128      C2134   1.410       .  A
C2128      C2129   1.414       .  A
C2129      C2131   1.413       .  A
C2129      C2130   1.412       .  A
C2130      C2138   1.406       .  A
C2131      C2140   1.403       .  A
C2131      C2132   1.403       .  A
C2132      H2143   1.084       .  S
C2132      C2133   1.398       .  A
C2133      H2144   1.084       .  S
C2133      C2134   1.404       .  A
C2134      C2135   1.402       .  A
C2135      H2145   1.084       .  S
C2135      C2136   1.409       .  A
C2136      C2137   1.408       .  A
C2137      H2146   1.084       .  S
C2138      H2147   1.084       .  S
C2138      C2139   1.407       .  A
C2139      C2140   1.404       .  A
C2140      H2148   1.084       .  S
C2149      H2165   1.083       .  S
C2149      C2150   1.400       .  A
C2149      C2154   1.404       .  A
C2150      H2166   1.084       .  S
C2150      C2151   1.403       .  A
C2151      C2161   1.403       .  A
C2151      C2152   1.412       .  A
C2152      C2153   1.412       .  A
C2153      C2155   1.411       .  A
C2153      C2154   1.411       .  A
C2154      C2162   1.405       .  A
C2155      C2164   1.402       .  A
C2156      H2167   1.084       .  S
C2156      C2157   1.398       .  A
C2157      H2168   1.084       .  S
C2157      C2158   1.403       .  A
C2158      C2159   1.401       .  A
C2159      H2169   1.084       .  S
C2159      C2160   1.403       .  A
C2161      H2170   1.084       .  S
C2162      H2171   1.084       .  S
C2162      C2163   1.409       .  A
C2163      C2164   1.408       .  A
C2164      H2172   1.084       .  S
C2173      N2174   1.363       .  A
C2173      N2178   1.358       .  A
C2173      C2887   1.486       .  S
N2174      C2175   1.360       .  A
C2175      N2176   1.357       .  A
C2175      C2197   1.468       .  S
N2176      C2177   1.355       .  A
C2177      N2178   1.355       .  A
C2177      C2304   1.462       .  S
C2179      N2180   1.365       .  A
C2179      N2184   1.362       .  A
C2179      C2860   1.489       .  S
N2180      C2181   1.359       .  A
C2181      N2182   1.355       .  A
C2181      C2227   1.468       .  S
N2182      C2183   1.356       .  A
C2183      N2184   1.358       .  A
C2183      C2274   1.464       .  S
C2185      N2186   1.359       .  A
C2185      N2190   1.365       .  A
C2185      C2836   1.489       .  S
N2186      C2187   1.355       .  A
C2187      N2188   1.356       .  A
C2187      C2314   1.464       .  S
N2188      C2189   1.358       .  A
C2189      N2190   1.363       .  A
C2189      C2247   1.471       .  S
C2191      N2192   1.358       .  A
C2191      N2196   1.358       .  A
C2191      C2815   1.485       .  S
N2192      C2193   1.359       .  A
C2193      N2194   1.359       .  A
C2193      C2237   1.465       .  S
N2194      C2195   1.358       .  A
C2195      N2196   1.358       .  A
C2195      C2324   1.466       .  S
C2197      C2234   1.458       .  S
N2198      N2215   1.326       .  A
N2198     Co2235   2.084       .  S
C2199      N2224   1.338       .  A
C2199      H2244   1.082       .  S
H2200      C2241   1.082       .  S
C2201      N2225   1.339       .  A
C2201      C2205   1.457       .  S
C2201      H2230   1.082       .  S
Co2202     N2220   2.097       .  S
Co2202     N2210   2.080       .  S
N2203      C2241   1.346       .  A
N2203     Co2204   2.091       .  S
Co2204     N2207   2.080       .  S
Co2204    Cl2246   2.477       .  S
C2205      N2243   1.348       .  A
C2205      C2252   1.463       .  S
N2206      N2213   1.320       .  A
N2206      N2236   1.324       .  A
N2206     Co2239   2.086       .  S
N2207      N2225   1.323       .  A
N2207      N2243   1.325       .  A
N2208      C2237   1.350       .  A
N2208      N2218   1.326       .  A
H2209      C2234   1.082       .  S
N2210      N2231   1.322       .  A
N2211      N2229   1.320       .  A
N2211      N2216   1.328       .  A
C2212      N2216   1.351       .  A
C2212      C2240   1.457       .  S
C2212      C2272   1.470       .  S
N2213      C2228   1.346       .  A
N2213     Co2235   2.092       .  S
C2214      N2242   1.335       .  A
C2214      C2217   1.452       .  S
C2214      H2248   1.082       .  S
C2217      C2260   1.465       .  S
N2219      C2245   1.339       .  A
N2219      N2221   1.323       .  A
N2220      C2234   1.340       .  A
N2221      N2249   1.325       .  A
H2222      C2245   1.082       .  S
H2223      C2240   1.082       .  S
N2225     Co2239   2.092       .  S
N2226      N2238   1.329       .  A
C2227      N2231   1.347       .  A
C2228      C2247   1.462       .  S
C2228      H2232   1.082       .  S
N2229      C2240   1.340       .  A
C2233      N2249   1.350       .  A
C2233      C2245   1.455       .  S
C2233      C2266   1.464       .  S
Co2235    Cl2246   2.478       .  S
N2236      C2247   1.348       .  A
Co2239    Cl2246   2.430       .  S
C2250      N2251   1.361       .  A
C2250      N2255   1.363       .  A
C2250      C2788   1.485       .  S
N2251      C2252   1.357       .  A
C2252      N2253   1.353       .  A
N2253      C2254   1.354       .  A
C2254      N2255   1.360       .  A
C2254      C2294   1.465       .  S
C2256      N2257   1.364       .  A
C2256      N2261   1.365       .  A
C2256      C2767   1.488       .  S
N2257      C2258   1.358       .  A
C2258      N2259   1.353       .  A
C2258      C2282   1.465       .  S
N2259      C2260   1.354       .  A
C2260      N2261   1.360       .  A
C2262      N2263   1.364       .  A
C2262      N2267   1.359       .  A
C2262      C2740   1.487       .  S
N2263      C2264   1.363       .  A
C2264      N2265   1.356       .  A
C2264      C2289   1.469       .  S
N2265      C2266   1.355       .  A
C2266      N2267   1.356       .  A
C2268      N2269   1.362       .  A
C2268      N2273   1.365       .  A
C2268      C2719   1.488       .  S
N2269      C2270   1.358       .  A
C2270      N2271   1.356       .  A
C2270      C2310   1.463       .  S
N2271      C2272   1.355       .  A
C2272      N2273   1.359       .  A
C2274      N2292   1.352       .  A
C2274      C2311   1.453       .  S
N2275      N2292   1.327       .  A
N2275      N2297   1.319       .  A
N2275     Co2312   2.092       .  S
C2276      N2301   1.342       .  A
C2276      C2314   1.460       .  S
C2276      H2321   1.082       .  S
H2277      C2318   1.082       .  S
C2278      N2302   1.337       .  A
C2278      C2282   1.454       .  S
C2278      H2307   1.082       .  S
Co2279     N2297   2.073       .  S
Co2279     N2287   2.089       .  S
Co2279     N2319   2.091       .  S
Co2279     N2295   2.080       .  S
Co2279    Cl2323   2.432       .  S
N2280      C2318   1.339       .  A
N2280      N2287   1.321       .  A
N2280     Co2281   2.075       .  S
Co2281     N2284   2.089       .  S
Co2281     N2301   2.086       .  S
Co2281     N2288   2.078       .  S
Co2281    Cl2323   2.472       .  S
C2282      N2320   1.351       .  A
N2283      N2290   1.322       .  A
N2283      N2313   1.328       .  A
N2283     Co2316   2.103       .  S
N2284      N2302   1.320       .  A
N2284      N2320   1.328       .  A
N2285      C2314   1.348       .  A
N2285      N2295   1.324       .  A
H2286      C2311   1.082       .  S
N2287      N2308   1.324       .  A
N2288      N2306   1.322       .  A
N2288      N2293   1.326       .  A
C2289      N2293   1.348       .  A
C2289      C2317   1.460       .  S
N2290      C2305   1.336       .  A
N2290     Co2312   2.073       .  S
C2291      N2319   1.339       .  A
C2291      C2294   1.458       .  S
C2291      H2325   1.082       .  S
C2294      N2315   1.348       .  A
N2295      N2301   1.319       .  A
N2296      C2322   1.344       .  A
N2296      N2298   1.320       .  A
N2296     Co2312   2.085       .  S
N2297      C2311   1.337       .  A
N2298      N2326   1.322       .  A
N2298     Co2316   2.079       .  S
H2299      C2322   1.082       .  S
H2300      C2317   1.082       .  S
N2302     Co2316   2.078       .  S
N2303      N2315   1.326       .  A
N2303      N2319   1.321       .  A
N2303     Co2312   2.079       .  S
C2304      N2308   1.349       .  A
C2304      C2318   1.455       .  S
C2305      C2324   1.453       .  S
C2305      H2309   1.082       .  S
N2306      C2317   1.341       .  A
N2306     Co2316   2.099       .  S
C2310      N2326   1.346       .  A
C2310      C2322   1.460       .  S
Co2312    Cl2323   2.471       .  S
N2313      C2324   1.353       .  A
Co2316    Cl2323   2.430       .  S
C2327      C2764   1.484       .  S
C2327      C2328   1.417       .  A
C2327      C2332   1.406       .  A
C2328      C2839   1.484       .  S
C2328      C2329   1.406       .  A
C2329      H2334   1.084       .  S
C2329      C2330   1.403       .  A
C2330      C2692   1.481       .  S
C2330      C2331   1.412       .  A
C2331      C2668   1.482       .  S
C2331      C2332   1.403       .  A
C2335      C2336   1.411       .  A
C2336      C2791   1.480       .  S
C2336      C2337   1.403       .  A
C2337      H2342   1.084       .  S
C2337      C2338   1.405       .  A
C2338      C2620   1.481   1_554  S
C2338      C2339   1.417       .  A
C2340      H2341   1.084   1_455  S
C2343      C2743   1.488       .  S
C2343      C2344   1.414       .  A
C2343      C2348   1.403       .  A
C2344      C2884   1.476       .  S
C2344      C2345   1.404       .  A
C2345      C2346   1.404       .  A
C2346      C2596   1.485       .  S
C2346      C2347   1.414       .  A
C2347      C2572   1.477       .  S
C2347      C2348   1.407       .  A
C2348      H2349   1.084       .  S
C2351      C2863   1.484       .  S
C2351      C2352   1.415       .  A
C2351      C2356   1.408       .  A
C2352      C2716   1.479       .  S
C2352      C2353   1.405       .  A
C2353      C2354   1.402       .  A
C2354      C2527   1.481   1_554  S
C2354      C2355   1.411       .  A
C2355      C2551   1.481   1_554  S
C2355      C2356   1.404       .  A
C2356      H2357   1.084       .  S
C2359      N2360   1.360       .  A
C2359      N2364   1.363       .  A
C2359      C2548   1.487       .  S
N2360      C2361   1.358       .  A
C2361      N2362   1.355       .  A
C2361      C2490   1.464       .  S
N2362      C2363   1.356       .  A
C2363      N2364   1.360       .  A
C2363      C2395   1.469       .  S
C2365      N2366   1.364       .  A
C2365      N2370   1.363       .  A
C2365      C2647   1.485       .  S
N2366      C2367   1.360       .  A
C2367      N2368   1.354       .  A
C2367      C2415   1.462       .  S
N2368      C2369   1.351       .  A
C2369      N2370   1.356       .  A
C2369      C2468   1.462       .  S
C2371      N2372   1.364       .  A
C2371      N2376   1.359       .  A
C2371      C2524   1.488       .  S
N2372      C2373   1.363       .  A
C2373      N2374   1.359       .  A
C2373      C2475   1.472       .  S
N2374      C2375   1.357       .  A
C2375      N2376   1.355       .  A
C2375      C2431   1.467       .  S
C2377      N2378   1.363       .  A
C2377      N2382   1.362       .  A
C2377      C2623   1.491       .  S
N2378      C2379   1.359       .  A
C2379      N2380   1.355       .  A
C2379      C2500   1.469       .  S
N2380      C2381   1.358       .  A
C2381      N2382   1.359       .  A
C2381      C2445   1.464       .  S
C2383      N2384   1.365       .  A
C2383      N2388   1.362       .  A
C2383      C2575   1.490       .  S
N2384      C2385   1.361       .  A
C2385      N2386   1.355       .  A
C2385      C2410   1.468       .  S
N2386      C2387   1.355       .  A
C2387      N2388   1.356       .  A
C2387      C2496   1.464       .  S
C2389      N2390   1.355       .  A
C2389      N2394   1.359       .  A
C2389      C2671   1.483       .  S
N2390      C2391   1.354       .  A
C2391      N2392   1.358       .  A
C2391      C2510   1.462       .  S
N2392      C2393   1.359       .  A
C2393      N2394   1.361       .  A
C2393      C2435   1.466       .  S
C2395      N2413   1.350       .  A
C2395      C2432   1.459       .  S
N2396      N2413   1.326       .  A
N2396      N2418   1.323       .  A
N2396     Co2433   2.088       .  S
C2397      N2422   1.338       .  A
C2397      C2435   1.454       .  S
C2397      H2442   1.082       .  S
H2398      C2439   1.082       .  S
C2399      N2423   1.338       .  A
C2399      C2403   1.458       .  S
C2399      H2428   1.082       .  S
Co2400     N2418   2.096       .  S
Co2400     N2408   2.082       .  S
Co2400     N2440   2.075       .  S
Co2400     N2416   2.102       .  S
Co2400    Cl2444   2.429       .  S
N2401      C2439   1.344       .  A
N2401      N2408   1.319       .  A
N2401     Co2402   2.085       .  S
Co2402     N2405   2.072       .  S
Co2402     N2422   2.072       .  S
Co2402     N2409   2.089       .  S
Co2402    Cl2444   2.473       .  S
C2403      N2441   1.347       .  A
C2403      C2458   1.461       .  S
N2404      N2411   1.319       .  A
N2404      N2434   1.322       .  A
N2404     Co2437   2.077       .  S
N2405      N2423   1.321       .  A
N2405      N2441   1.324       .  A
N2406      C2435   1.352       .  A
N2406      N2416   1.327       .  A
H2407      C2432   1.082       .  S
N2408      N2429   1.324       .  A
N2409      N2427   1.319       .  A
N2409      N2414   1.328       .  A
C2410      N2414   1.351       .  A
C2410      C2438   1.455       .  S
N2411      C2426   1.345       .  A
N2411     Co2433   2.087       .  S
C2412      N2440   1.335       .  A
C2412      C2415   1.453       .  S
C2412      H2446   1.082       .  S
C2415      N2436   1.351       .  A
N2416      N2422   1.321       .  A
N2417      C2443   1.342       .  A
N2417      N2419   1.322       .  A
N2417     Co2433   2.087       .  S
N2418      C2432   1.341       .  A
N2419      N2447   1.325       .  A
N2419     Co2437   2.092       .  S
H2420      C2443   1.082       .  S
H2421      C2438   1.082       .  S
N2423     Co2437   2.090       .  S
N2424      N2436   1.328       .  A
N2424      N2440   1.320       .  A
N2424     Co2433   2.087       .  S
C2425      N2429   1.348       .  A
C2425      C2439   1.460       .  S
C2425      C2452   1.466       .  S
C2426      C2445   1.462       .  S
C2426      H2430   1.082       .  S
N2427      C2438   1.338       .  A
N2427     Co2437   2.078       .  S
C2431      N2447   1.349       .  A
C2431      C2443   1.460       .  S
Co2433    Cl2444   2.478       .  S
N2434      C2445   1.346       .  A
Co2437    Cl2444   2.426       .  S
C2448      N2449   1.365       .  A
C2448      N2453   1.363       .  A
C2448      C2599   1.492       .  S
N2449      C2450   1.362       .  A
C2450      N2451   1.356       .  A
C2450      C2460   1.468       .  S
N2451      C2452   1.354       .  A
C2452      N2453   1.358       .  A
C2454      N2455   1.361       .  A
C2454      N2459   1.363       .  A
C2454      C2695   1.485       .  S
N2455      C2456   1.357       .  A
C2456      N2457   1.352       .  A
C2456      C2480   1.459       .  S
N2457      C2458   1.352       .  A
C2458      N2459   1.359       .  A
C2460      N2478   1.353       .  A
C2460      C2497   1.453       .  S
N2461      N2478   1.329       .  A
N2461      N2483   1.320       .  A
C2462      N2487   1.342       .  A
C2462      C2500   1.458       .  S
C2462      H2507   1.082       .  S
H2463      C2504   1.082       .  S
C2464      N2488   1.338       .  A
C2464      C2468   1.455       .  S
C2464      H2493   1.082       .  S
Co2465     N2505   2.089       .  S
Co2465     N2481   2.091       .  S
Co2465    Cl2509   2.431       .  S
N2466      C2504   1.339       .  A
N2466      N2473   1.321       .  A
Co2467     N2487   2.083       .  S
Co2467    Cl2509   2.471       .  S
C2468      N2506   1.349       .  A
N2469      N2476   1.322       .  A
N2469      N2499   1.327       .  A
N2470      N2488   1.319       .  A
N2470      N2506   1.326       .  A
N2471      C2500   1.350       .  A
N2471      N2481   1.326       .  A
H2472      C2497   1.082       .  S
N2473      N2494   1.325       .  A
N2474      N2492   1.321       .  A
N2474      N2479   1.326       .  A
C2475      N2479   1.350       .  A
C2475      C2503   1.461       .  S
N2476      C2491   1.336       .  A
C2477      N2505   1.338       .  A
C2477      C2480   1.456       .  S
C2477      H2511   1.082       .  S
C2480      N2501   1.347       .  A
N2481      N2487   1.319       .  A
N2482      C2508   1.345       .  A
N2482      N2484   1.320       .  A
N2483      C2497   1.337       .  A
N2484      N2512   1.322       .  A
N2484     Co2502   2.076       .  S
H2485      C2508   1.082       .  S
H2486      C2503   1.082       .  S
N2489      N2501   1.324       .  A
N2489      N2505   1.323       .  A
N2489     Co2498   2.074       .  S
C2490      N2494   1.351       .  A
C2490      C2504   1.454       .  S
C2491      C2510   1.454       .  S
C2491      H2495   1.082       .  S
N2492      C2503   1.342       .  A
N2492     Co2502   2.099       .  S
C2496      N2512   1.346       .  A
C2496      C2508   1.463       .  S
Co2498    Cl2509   2.474       .  S
N2499      C2510   1.350       .  A
C2513      H2529   1.083       .  S
C2513      C2514   1.401       .  A
C2513      C2518   1.404       .  A
C2514      H2530   1.084       .  S
C2515      C2525   1.407       .  A
C2515      C2516   1.413       .  A
C2516      C2522   1.409       .  A
C2516      C2517   1.413       .  A
C2517      C2519   1.414       .  A
C2518      C2526   1.404       .  A
C2519      C2528   1.403       .  A
C2519      C2520   1.402       .  A
C2520      H2531   1.084       .  S
C2520      C2521   1.399       .  A
C2521      H2532   1.083       .  S
C2521      C2522   1.404       .  A
C2522      C2523   1.401       .  A
C2523      H2533   1.084       .  S
C2523      C2524   1.410       .  A
C2524      C2525   1.408       .  A
C2525      H2534   1.084       .  S
C2526      H2535   1.084       .  S
C2526      C2527   1.405       .  A
C2528      H2536   1.085       .  S
C2537      H2553   1.084       .  S
C2537      C2538   1.399       .  A
C2537      C2542   1.402       .  A
C2538      H2554   1.083       .  S
C2538      C2539   1.404       .  A
C2539      C2549   1.403       .  A
C2539      C2540   1.411       .  A
C2540      C2546   1.411       .  A
C2540      C2541   1.413       .  A
C2541      C2543   1.412       .  A
C2541      C2542   1.413       .  A
C2542      C2550   1.403       .  A
C2543      C2552   1.405       .  A
C2543      C2544   1.404       .  A
C2544      H2555   1.083   1_565  S
C2544      C2545   1.401       .  A
C2545      H2556   1.084       .  S
C2545      C2546   1.405       .  A
C2546      C2547   1.406       .  A
C2547      H2557   1.084       .  S
C2547      C2548   1.410       .  A
C2548      C2549   1.407       .  A
C2549      H2558   1.084       .  S
C2550      H2559   1.085       .  S
C2550      C2551   1.402       .  A
C2551      C2552   1.406       .  A
C2552      H2560   1.084       .  S
C2561      H2577   1.084       .  S
C2561      C2562   1.400       .  A
C2561      C2566   1.404       .  A
C2562      H2578   1.083       .  S
C2562      C2563   1.403       .  A
C2563      C2573   1.403       .  A
C2563      C2564   1.412       .  A
C2564      C2570   1.413       .  A
C2564      C2565   1.413       .  A
C2565      C2567   1.410       .  A
C2565      C2566   1.412       .  A
C2566      C2574   1.406       .  A
C2567      C2576   1.403       .  A
C2567      C2568   1.404       .  A
C2568      H2579   1.083       .  S
C2568      C2569   1.399       .  A
C2569      H2580   1.084       .  S
C2569      C2570   1.403       .  A
C2570      C2571   1.404       .  A
C2571      H2581   1.085       .  S
C2571      C2572   1.403       .  A
C2572      C2573   1.403       .  A
C2573      H2582   1.084       .  S
C2574      H2583   1.084       .  S
C2574      C2575   1.410       .  A
C2575      C2576   1.410       .  A
C2576      H2584   1.083       .  S
C2585      H2601   1.084       .  S
C2585      C2586   1.400       .  A
C2585      C2590   1.404       .  A
C2586      H2602   1.083       .  S
C2586      C2587   1.404       .  A
C2587      C2597   1.406       .  A
C2587      C2588   1.413       .  A
C2588      C2594   1.412       .  A
C2588      C2589   1.415       .  A
C2589      C2591   1.412       .  A
C2589      C2590   1.410       .  A
C2590      C2598   1.405       .  A
C2591      C2600   1.408       .  A
C2591      C2592   1.405       .  A
C2592      H2603   1.083       .  S
C2592      C2593   1.401   1_655  A
C2593      H2604   1.084       .  S
C2593      C2594   1.404   1_455  A
C2594      C2595   1.406   1_655  A
C2595      H2605   1.085       .  S
C2598      H2607   1.084       .  S
C2598      C2599   1.411       .  A
C2599      C2600   1.410       .  A
C2600      H2608   1.084       .  S
C2609      H2625   1.084       .  S
C2609      C2610   1.399       .  A
C2609      C2614   1.404       .  A
C2610      H2626   1.083       .  S
C2610      C2611   1.403       .  A
C2611      C2621   1.404       .  A
C2611      C2612   1.413       .  A
C2612      C2618   1.412       .  A
C2612      C2613   1.414       .  A
C2613      C2615   1.411       .  A
C2613      C2614   1.411       .  A
C2614      C2622   1.403       .  A
C2615      C2624   1.408       .  A
C2615      C2616   1.405       .  A
C2616      H2627   1.083       .  S
C2616      C2617   1.402       .  A
C2617      H2628   1.084       .  S
C2617      C2618   1.404       .  A
C2618      C2619   1.406       .  A
C2619      H2629   1.084       .  S
C2619      C2620   1.405       .  A
C2620      C2621   1.403       .  A
C2621      H2630   1.084       .  S
C2622      H2631   1.084       .  S
C2622      C2623   1.409       .  A
C2623      C2624   1.411       .  A
C2624      H2632   1.084       .  S
C2633      H2649   1.084       .  S
C2633      C2634   1.398       .  A
C2634      H2650   1.083       .  S
C2634      C2635   1.403       .  A
C2635      C2645   1.403       .  A
C2636      C2642   1.412       .  A
C2636      C2637   1.413       .  A
C2637      C2639   1.412       .  A
C2637      C2638   1.410       .  A
C2638      C2646   1.401       .  A
C2639      C2648   1.407       .  A
C2639      C2640   1.404       .  A
C2640      H2651   1.083       .  S
C2640      C2641   1.401       .  A
C2641      H2652   1.084       .  S
C2641      C2642   1.404       .  A
C2642      C2643   1.405       .  A
C2643      H2653   1.085       .  S
C2643      C2644   1.406   1_655  A
C2645      H2654   1.084       .  S
C2646      H2655   1.084       .  S
C2646      C2647   1.408       .  A
C2647      C2648   1.408       .  A
C2648      H2656   1.084       .  S
C2657      H2673   1.084       .  S
C2657      C2658   1.399       .  A
C2657      C2662   1.403       .  A
C2658      H2674   1.083       .  S
C2658      C2659   1.403       .  A
C2659      C2669   1.400       .  A
C2659      C2660   1.411       .  A
C2660      C2661   1.411       .  A
C2661      C2663   1.409       .  A
C2661      C2662   1.413       .  A
C2662      C2670   1.404       .  A
C2663      C2672   1.400       .  A
C2664      H2675   1.083       .  S
C2664      C2665   1.399       .  A
C2665      H2676   1.084       .  S
C2665      C2666   1.403       .  A
C2666      C2667   1.404       .  A
C2667      H2677   1.084       .  S
C2667      C2668   1.403       .  A
C2669      H2678   1.084       .  S
C2670      H2679   1.084       .  S
C2670      C2671   1.407       .  A
C2671      C2672   1.409       .  A
C2672      H2680   1.084       .  S
C2681      H2697   1.084       .  S
C2681      C2682   1.399       .  A
C2681      C2686   1.403       .  A
C2682      H2698   1.083       .  S
C2682      C2683   1.403       .  A
C2683      C2693   1.401       .  A
C2683      C2684   1.411       .  A
C2684      C2690   1.413       .  A
C2684      C2685   1.412       .  A
C2685      C2687   1.410       .  A
C2685      C2686   1.412       .  A
C2686      C2694   1.403       .  A
C2687      C2696   1.404       .  A
C2687      C2688   1.405       .  A
C2688      H2699   1.083       .  S
C2688      C2689   1.400       .  A
C2689      H2700   1.084       .  S
C2689      C2690   1.403       .  A
C2690      C2691   1.405       .  A
C2691      H2701   1.084       .  S
C2691      C2692   1.404       .  A
C2692      C2693   1.404       .  A
C2693      H2702   1.084       .  S
C2694      H2703   1.084       .  S
C2694      C2695   1.408       .  A
C2695      C2696   1.409       .  A
C2696      H2704   1.084       .  S
C2705      H2721   1.084   1_545  S
C2705      C2706   1.401   1_545  A
C2706      H2722   1.083       .  S
C2706      C2707   1.404       .  A
C2707      C2717   1.406       .  A
C2708      C2714   1.412       .  A
C2708      C2709   1.413       .  A
C2709      C2711   1.411       .  A
C2709      C2710   1.411       .  A
C2710      C2718   1.402       .  A
C2711      C2720   1.408       .  A
C2711      C2712   1.405       .  A
C2712      H2723   1.083       .  S
C2712      C2713   1.402       .  A
C2713      H2724   1.084       .  S
C2713      C2714   1.404       .  A
C2714      C2715   1.406       .  A
C2715      H2725   1.084       .  S
C2716      C2717   1.405       .  A
C2717      H2726   1.084       .  S
C2718      H2727   1.084       .  S
C2718      C2719   1.408       .  A
C2719      C2720   1.411       .  A
C2720      H2728   1.084       .  S
C2729      C2730   1.401       .  A
C2729      C2734   1.404       .  A
C2730      H2746   1.084       .  S
C2730      C2731   1.405       .  A
C2731      C2741   1.404       .  A
C2731      C2732   1.410       .  A
C2732      C2738   1.413       .  A
C2732      C2733   1.414       .  A
C2733      C2735   1.411       .  A
C2733      C2734   1.413       .  A
C2734      C2742   1.407       .  A
C2735      C2744   1.403       .  A
C2735      C2736   1.404       .  A
C2736      H2747   1.084       .  S
C2736      C2737   1.400       .  A
C2737      H2748   1.083       .  S
C2737      C2738   1.404       .  A
C2738      C2739   1.406       .  A
C2739      H2749   1.084       .  S
C2739      C2740   1.407       .  A
C2740      C2741   1.410       .  A
C2741      H2750   1.084       .  S
C2742      H2751   1.084       .  S
C2742      C2743   1.405       .  A
C2743      C2744   1.406       .  A
C2744      H2752   1.084       .  S
C2753      H2769   1.083       .  S
C2753      C2754   1.400       .  A
C2753      C2758   1.404       .  A
C2754      C2755   1.403       .  A
C2755      C2756   1.412       .  A
C2756      C2762   1.412       .  A
C2756      C2757   1.413       .  A
C2757      C2759   1.411       .  A
C2757      C2758   1.411       .  A
C2758      C2766   1.406       .  A
C2759      C2768   1.404       .  A
C2759      C2760   1.404       .  A
C2760      H2771   1.084       .  S
C2760      C2761   1.399       .  A
C2761      H2772   1.083       .  S
C2761      C2762   1.403       .  A
C2762      C2763   1.403       .  A
C2763      H2773   1.084       .  S
C2764      C2765   1.406       .  A
C2765      H2774   1.084       .  S
C2766      H2775   1.084       .  S
C2766      C2767   1.409       .  A
C2767      C2768   1.410       .  A
C2768      H2776   1.084       .  S
C2777      C2778   1.400       .  A
C2777      C2782   1.404       .  A
C2778      H2794   1.084       .  S
C2778      C2779   1.404       .  A
C2779      C2789   1.403       .  A
C2779      C2780   1.411       .  A
C2780      C2786   1.411       .  A
C2780      C2781   1.412       .  A
C2781      C2783   1.413       .  A
C2781      C2782   1.412       .  A
C2782      C2790   1.403       .  A
C2783      C2792   1.403       .  A
C2783      C2784   1.403       .  A
C2784      H2795   1.084       .  S
C2784      C2785   1.399       .  A
C2785      H2796   1.083       .  S
C2785      C2786   1.404       .  A
C2786      C2787   1.404       .  A
C2787      H2797   1.084       .  S
C2787      C2788   1.408       .  A
C2788      C2789   1.409       .  A
C2789      H2798   1.084       .  S
C2790      H2799   1.084       .  S
C2790      C2791   1.405       .  A
C2791      C2792   1.402       .  A
C2792      H2800   1.085       .  S
C2801      H2817   1.084       .  S
C2801      C2806   1.404   1_455  A
C2802      H2818   1.084       .  S
C2803      C2804   1.411   1_455  A
C2804      C2810   1.413       .  A
C2804      C2805   1.413       .  A
C2805      C2807   1.411       .  A
C2805      C2806   1.412       .  A
C2806      C2814   1.404       .  A
C2807      C2816   1.404       .  A
C2807      C2808   1.404       .  A
C2808      H2819   1.084       .  S
C2808      C2809   1.400       .  A
C2809      H2820   1.083       .  S
C2809      C2810   1.403       .  A
C2810      C2811   1.405       .  A
C2811      H2821   1.084       .  S
C2811      C2812   1.403   1_655  A
C2813      H2822   1.084       .  S
C2814      H2823   1.084       .  S
C2814      C2815   1.408       .  A
C2815      C2816   1.409       .  A
C2816      H2824   1.084       .  S
C2825      H2841   1.084       .  S
C2825      C2826   1.400       .  A
C2825      C2830   1.403       .  A
C2826      H2842   1.083       .  S
C2826      C2827   1.404       .  A
C2827      C2837   1.407       .  A
C2827      C2828   1.413       .  A
C2828      C2834   1.410       .  A
C2828      C2829   1.414       .  A
C2829      C2831   1.413       .  A
C2829      C2830   1.411       .  A
C2830      C2838   1.403       .  A
C2831      C2840   1.406       .  A
C2831      C2832   1.404       .  A
C2832      H2843   1.083       .  S
C2832      C2833   1.400       .  A
C2833      H2844   1.084       .  S
C2833      C2834   1.405       .  A
C2834      C2835   1.404       .  A
C2835      H2845   1.084       .  S
C2835      C2836   1.411       .  A
C2836      C2837   1.407       .  A
C2837      H2846   1.084       .  S
C2838      H2847   1.084       .  S
C2838      C2839   1.404       .  A
C2839      C2840   1.406       .  A
C2840      H2848   1.084       .  S
C2849      H2865   1.084       .  S
C2849      C2850   1.402       .  A
C2849      C2854   1.404       .  A
C2850      H2866   1.084       .  S
C2850      C2851   1.405       .  A
C2851      C2861   1.407       .  A
C2851      C2852   1.411       .  A
C2852      C2858   1.412       .  A
C2852      C2853   1.415       .  A
C2853      C2855   1.412       .  A
C2853      C2854   1.413       .  A
C2854      C2862   1.408       .  A
C2855      C2864   1.404       .  A
C2855      C2856   1.403       .  A
C2856      H2867   1.084       .  S
C2856      C2857   1.399       .  A
C2857      H2868   1.083       .  S
C2857      C2858   1.403       .  A
C2858      C2859   1.404       .  A
C2859      H2869   1.084       .  S
C2859      C2860   1.407       .  A
C2860      C2861   1.412       .  A
C2861      H2870   1.084       .  S
C2862      H2871   1.084       .  S
C2862      C2863   1.406       .  A
C2863      C2864   1.404       .  A
C2864      H2872   1.084       .  S
C2873      H2889   1.083       .  S
C2873      C2874   1.399       .  A
C2873      C2878   1.404       .  A
C2874      H2890   1.084       .  S
C2874      C2875   1.403       .  A
C2875      C2885   1.402       .  A
C2875      C2876   1.412       .  A
C2876      C2877   1.412       .  A
C2877      C2879   1.411       .  A
C2877      C2878   1.411       .  A
C2878      C2886   1.403       .  A
C2879      C2888   1.403       .  A
C2880      H2891   1.084       .  S
C2880      C2881   1.399       .  A
C2881      H2892   1.083       .  S
C2881      C2882   1.403       .  A
C2882      C2883   1.403       .  A
C2883      H2893   1.084       .  S
C2883      C2884   1.402       .  A
C2885      H2894   1.085       .  S
C2886      H2895   1.084       .  S
C2886      C2887   1.410       .  A
C2887      C2888   1.407       .  A
C2888      H2896   1.084       .  S
