geometry optimzed in LAMMPS
_audit_creation_date              2020-12-01 
_audit_creation_method            'lammps2cif' 
_symmetry_space_group_name_H-M    'P1' 
_symmetry_Int_Tables_number       1 
_symmetry_cell_setting            triclinic 
loop_ 
_symmetry_equiv_pos_as_xyz 
  x,y,z 
_cell_length_a                    28.91232231 
_cell_length_b                    29.00015302624851 
_cell_length_c                    39.917811741805046 
_cell_angle_alpha                 90.06072592211702 
_cell_angle_beta                  89.95809604127395 
_cell_angle_gamma                 89.91539565000357 
loop_ 
_atom_site_label 
_atom_site_type_symbol 
_atom_site_fract_x 
_atom_site_fract_y 
_atom_site_fract_z 
_atom_site_charge 
O1          O  0.80473982  0.84723632  0.62548608    -0.74200
O2          O  0.86391344  0.96616660  0.62908840    -0.74300
O3          O  0.86008885  0.89656537  0.58381493    -0.74300
O4          O  0.80777662  0.91673321  0.67068623    -0.74400
O5          O  0.86959862  0.88399589  0.69406043    -0.74300
O6          O  0.92219261  0.86422721  0.60713007    -0.74300
O7          O  0.92502432  0.93288507  0.65321512    -0.74200
O8          O  0.86736921  0.81551382  0.64846003    -0.74300
Ni9        Ni  0.83188184  0.90793561  0.62640878     1.25400
Ni10       Ni  0.89824820  0.87314831  0.65150896     1.25400
C11         C  0.82658251  0.81174429  0.63644100     0.88000
C12         C  0.90437980  0.96874766  0.64208850     0.87900
C13         C  0.89940459  0.87648125  0.58108128     0.87900
C14         C  0.82974902  0.90305997  0.69671551     0.88100
O15         O  0.16315670  0.20617575  0.62802506    -0.74200
O16         O  0.04342840  0.14781905  0.63133304    -0.74300
O17         O  0.09361793  0.20269114  0.67336407    -0.74300
O18         O  0.11292861  0.15240826  0.58588964    -0.74400
O19         O  0.14441904  0.08940727  0.60826159    -0.74300
O20         O  0.12680802  0.14065340  0.69589554    -0.74300
O21         O  0.07667736  0.08646640  0.65496325    -0.74200
O22         O  0.19479373  0.14258741  0.64954332    -0.74300
Ni23       Ni  0.10203612  0.17956584  0.62883399     1.25400
Ni24       Ni  0.13669551  0.11259104  0.65295780     1.25400
C25         C  0.19870609  0.18349595  0.63808657     0.88000
C26         C  0.04075943  0.10729140  0.64404435     0.87900
C27         C  0.10758982  0.18029607  0.69908174     0.87900
C28         C  0.13210054  0.11284648  0.58253791     0.88100
O29         O  0.15365469  0.23465857  0.90198792    -0.74200
O30         O  0.03327420  0.29232148  0.89790021    -0.74300
O31         O  0.08573201  0.23958824  0.85568537    -0.74300
O32         O  0.10163244  0.28604826  0.94451607    -0.74400
O33         O  0.13326460  0.35010113  0.92404414    -0.74300
O34         O  0.11894788  0.30271910  0.83483728    -0.74300
O35         O  0.06680037  0.35475093  0.87615091    -0.74200
O36         O  0.18552697  0.29928738  0.88242803    -0.74300
Ni37       Ni  0.09224704  0.26087817  0.90076679     1.25400
Ni38       Ni  0.12708607  0.32899501  0.87864238     1.25400
C39         C  0.18937575  0.25798675  0.89316305     0.88000
C40         C  0.03063386  0.33324868  0.88583323     0.87900
C41         C  0.10067604  0.26285354  0.83069030     0.87900
C42         C  0.12108915  0.32517259  0.94907600     0.88100
O43         O  0.80076464  0.59914179  0.89830823    -0.74200
O44         O  0.85648154  0.47831540  0.89641459    -0.74300
O45         O  0.85327568  0.54876566  0.94113693    -0.74300
O46         O  0.80326201  0.52877660  0.85372958    -0.74400
O47         O  0.86632820  0.55983504  0.83098318    -0.74300
O48         O  0.91736278  0.57819685  0.91887686    -0.74300
O49         O  0.91906046  0.50928942  0.87275517    -0.74200
O50         O  0.86512242  0.62910698  0.87666973    -0.74300
Ni51       Ni  0.82617929  0.53764207  0.89822304     1.25400
Ni52       Ni  0.89423878  0.57010113  0.87403473     1.25400
C53         C  0.82397145  0.63403962  0.88792258     0.88000
C54         C  0.89701936  0.47416449  0.88370225     0.87900
C55         C  0.89334256  0.56689451  0.94463323     0.87900
C56         C  0.82620862  0.54145529  0.82790095     0.88100
O57         O  0.41805062  0.23502422  0.63074623    -0.74200
O58         O  0.53937661  0.28874790  0.63106614    -0.74300
O59         O  0.48846326  0.23839161  0.67553815    -0.74300
O60         O  0.46881364  0.28473034  0.58681800    -0.74400
O61         O  0.43930755  0.34943738  0.60819733    -0.74300
O62         O  0.45841412  0.30281563  0.69686117    -0.74300
O63         O  0.50908858  0.35272850  0.65328942    -0.74200
O64         O  0.38870416  0.29996945  0.65176531    -0.74300
Ni65       Ni  0.47982661  0.25934295  0.63034588     1.25400
Ni66       Ni  0.44798209  0.32852378  0.65331047     1.25400
C67         C  0.38326762  0.25894310  0.64067667     0.88000
C68         C  0.54375391  0.32995124  0.64215420     0.87900
C69         C  0.47592789  0.26257953  0.70088357     0.87900
C70         C  0.45033654  0.32452429  0.58286505     0.88100
O71         O  0.77078798  0.59480172  0.62547913    -0.74200
O72         O  0.71783547  0.47350706  0.62621568    -0.74300
O73         O  0.71985675  0.54402420  0.58210256    -0.74300
O74         O  0.76950331  0.52446693  0.66965761    -0.74400
O75         O  0.70538720  0.55384912  0.69227845    -0.74300
O76         O  0.65527597  0.57290417  0.60438413    -0.74300
O77         O  0.65412826  0.50310119  0.64954675    -0.74200
O78         O  0.70594608  0.62372410  0.64736954    -0.74300
Ni79       Ni  0.74679420  0.53310908  0.62506248     1.25400
Ni80       Ni  0.67784570  0.56429408  0.64919536     1.25400
C81         C  0.74704754  0.62918803  0.63621902     0.88000
C82         C  0.67706445  0.46869482  0.63823877     0.87900
C83         C  0.67968715  0.56207427  0.57871692     0.87900
C84         C  0.74610026  0.53677151  0.69541674     0.88100
O85         O  0.76912426  0.85285902  0.89840083    -0.74200
O86         O  0.71493348  0.97407354  0.89549563    -0.74300
O87         O  0.71743465  0.90498024  0.94077771    -0.74300
O88         O  0.76732066  0.92172582  0.85296060    -0.74400
O89         O  0.70355054  0.89141475  0.83063596    -0.74300
O90         O  0.65318718  0.87545734  0.91872525    -0.74300
O91         O  0.65171943  0.94356582  0.87234359    -0.74200
O92         O  0.70464732  0.82323620  0.87678079    -0.74300
Ni93       Ni  0.74450037  0.91457506  0.89766568     1.25400
Ni94       Ni  0.67597244  0.88248447  0.87384018     1.25400
C95         C  0.74573983  0.81803842  0.88808886     0.88000
C96         C  0.67409736  0.97840327  0.88344208     0.87900
C97         C  0.67731609  0.88697906  0.94433042     0.87900
C98         C  0.74416487  0.90846166  0.82736405     0.88100
O99         O  0.40939984  0.20670274  0.90564592    -0.74200
O100        O  0.53193192  0.15424178  0.90166706    -0.74300
O101        O  0.47973877  0.20821537  0.86043084    -0.74300
O102        O  0.46198424  0.15352830  0.94678994    -0.74400
O103        O  0.43240058  0.09077893  0.92271073    -0.74300
O104        O  0.45120309  0.14499636  0.83629934    -0.74300
O105        O  0.50184581  0.09185112  0.87723269    -0.74200
O106        O  0.38113597  0.14362348  0.88133924    -0.74300
Ni107      Ni  0.47181120  0.18301889  0.90450779     1.25400
Ni108      Ni  0.44066546  0.11563872  0.87858075     1.25400
C109        C  0.37498465  0.18358004  0.89418474     0.88000
C110        C  0.53662368  0.11415267  0.88849352     0.87900
C111        C  0.46858613  0.18550720  0.83410020     0.87900
C112        C  0.44415795  0.11324490  0.94903084     0.88100
O113        O  0.30554963  0.34384873  0.40337172    -0.74200
O114        O  0.36129481  0.46476386  0.39812576    -0.74300
O115        O  0.30806911  0.41174883  0.35674280    -0.74300
O116        O  0.35737684  0.39670989  0.44489288    -0.74400
O117        O  0.42124993  0.36528539  0.42351712    -0.74300
O118        O  0.37173897  0.38022809  0.33500740    -0.74300
O119        O  0.42417425  0.43203128  0.37599184    -0.74200
O120        O  0.36984800  0.31336401  0.38198511    -0.74300
Ni121      Ni  0.33075801  0.40553268  0.40156356     1.25400
Ni122      Ni  0.39900303  0.37177563  0.37840427     1.25400
C123        C  0.32900938  0.30857264  0.39366849     0.88000
C124        C  0.40215305  0.46786203  0.38570828     0.87900
C125        C  0.33137857  0.39789035  0.33134896     0.87900
C126        C  0.39694609  0.37766145  0.44889897     0.88100
O127        O  0.66321588  0.70208101  0.39727392    -0.74200
O128        O  0.54268579  0.64572089  0.39272847    -0.74300
O129        O  0.61063538  0.65073596  0.43922238    -0.74300
O130        O  0.59537854  0.69808191  0.35057361    -0.74400
O131        O  0.62857102  0.63510976  0.32944243    -0.74300
O132        O  0.64177589  0.58654620  0.41835793    -0.74300
O133        O  0.57551270  0.58314285  0.37043336    -0.74200
O134        O  0.69487960  0.63758995  0.37724795    -0.74300
Ni135      Ni  0.60173744  0.67645848  0.39564916     1.25400
Ni136      Ni  0.63616909  0.60832218  0.37311077     1.25400
C137        C  0.69896698  0.67875654  0.38836115     0.88000
C138        C  0.53962441  0.60481805  0.38070380     0.87900
C139        C  0.62927749  0.61111201  0.44353379     0.87900
C140        C  0.61031173  0.67505500  0.32537839     0.88100
O141        O  0.92326628  0.70680210  0.12363640    -0.74200
O142        O  0.04202546  0.64603868  0.13015056    -0.74300
O143        O  0.97488418  0.65267412  0.08253763    -0.74300
O144        O  0.99014366  0.70146529  0.17111644    -0.74400
O145        O  0.95617514  0.63911744  0.19254657    -0.74300
O146        O  0.94001575  0.59080130  0.10386509    -0.74300
O147        O  0.00630457  0.58473399  0.15174423    -0.74200
O148        O  0.88989854  0.64419502  0.14504934    -0.74300
Ni149      Ni  0.98399847  0.67900829  0.12610638     1.25400
Ni150      Ni  0.94707163  0.61252619  0.14901842     1.25400
C151        C  0.88690915  0.68493913  0.13309423     0.88000
C152        C  0.04325090  0.60512494  0.14238754     0.87900
C153        C  0.95364017  0.61434444  0.07852773     0.87900
C154        C  0.97515837  0.67867932  0.19637517     0.88100
O155        O  0.27374491  0.33957403  0.12774590    -0.74200
O156        O  0.21705172  0.45973021  0.13249718    -0.74300
O157        O  0.27132630  0.40802755  0.17392003    -0.74300
O158        O  0.22014130  0.39111847  0.08634153    -0.74400
O159        O  0.15694503  0.35985658  0.10875608    -0.74300
O160        O  0.20853823  0.37604420  0.19642445    -0.74300
O161        O  0.15490967  0.42736400  0.15577007    -0.74200
O162        O  0.21007080  0.30847695  0.14963068    -0.74300
Ni163      Ni  0.24785379  0.40080780  0.12931942     1.25400
Ni164      Ni  0.18039486  0.36692754  0.15343426     1.25400
C165        C  0.25094136  0.30421772  0.13775184     0.88000
C166        C  0.17646162  0.46303056  0.14525310     0.87900
C167        C  0.24858416  0.39443166  0.19963443     0.87900
C168        C  0.18032562  0.37234887  0.08302028     0.88100
O169        O  0.30464175  0.08531103  0.12817529    -0.74200
O170        O  0.35925348  0.96434355  0.13158518    -0.74300
O171        O  0.30736403  0.01690242  0.17423311    -0.74300
O172        O  0.35558398  0.03309768  0.08575918    -0.74400
O173        O  0.42020217  0.06292664  0.10695891    -0.74300
O174        O  0.37131911  0.04804350  0.19558242    -0.74300
O175        O  0.42263545  0.99555548  0.15399140    -0.74200
O176        O  0.36949749  0.11544391  0.14881472    -0.74300
Ni177      Ni  0.32939166  0.02370461  0.12920839     1.25400
Ni178      Ni  0.39821088  0.05641870  0.15209553     1.25400
C179        C  0.32833008  0.12036836  0.13765883     0.88000
C180        C  0.40022121  0.96042445  0.14349453     0.87900
C181        C  0.33101770  0.03049540  0.19951049     0.87900
C182        C  0.39542262  0.05147692  0.08164932     0.88100
O183        O  0.66809841  0.73824923  0.12062914    -0.74200
O184        O  0.54509223  0.78776218  0.12744316    -0.74300
O185        O  0.61300926  0.79051440  0.08090268    -0.74300
O186        O  0.60042989  0.73471886  0.16723423    -0.74400
O187        O  0.62920449  0.79812222  0.19101098    -0.74300
O188        O  0.64168123  0.85402773  0.10446108    -0.74300
O189        O  0.57457669  0.85046374  0.15184211    -0.74200
O190        O  0.69667986  0.80205176  0.14389585    -0.74300
Ni191      Ni  0.60558823  0.76052906  0.12319931     1.25400
Ni192      Ni  0.63646456  0.82843073  0.14863756     1.25400
C193        C  0.70258085  0.76195315  0.13120881     0.88000
C194        C  0.53992560  0.82751224  0.14098098     0.87900
C195        C  0.62985506  0.83118619  0.07833047     0.87900
C196        C  0.61311238  0.75707583  0.19333858     0.88100
O197        O  0.91860590  0.73232128  0.40027452    -0.74200
O198        O  0.03968753  0.78718015  0.39761227    -0.74300
O199        O  0.97035382  0.78340489  0.44305280    -0.74300
O200        O  0.98770912  0.73537093  0.35445288    -0.74400
O201        O  0.95620586  0.79902506  0.33312619    -0.74300
O202        O  0.94077876  0.84789128  0.42163729    -0.74300
O203        O  0.00862746  0.85033817  0.37490265    -0.74200
O204        O  0.88835052  0.79708813  0.37975706    -0.74300
Ni205      Ni  0.98028630  0.75723462  0.39957112     1.25400
Ni206      Ni  0.94753363  0.82584187  0.37658831     1.25400
C207        C  0.88344152  0.75591984  0.39069132     0.88000
C208        C  0.04369958  0.82811226  0.38590090     0.87900
C209        C  0.95227433  0.82341421  0.44702557     0.87900
C210        C  0.97405106  0.75891438  0.32913769     0.88100
O211        O  0.27562263  0.08992050  0.40317990    -0.74200
O212        O  0.22171123  0.96865068  0.39999640    -0.74300
O213        O  0.27383510  0.02080048  0.35748580    -0.74300
O214        O  0.22452706  0.03791224  0.44553733    -0.74400
O215        O  0.15996436  0.06732712  0.42376924    -0.74300
O216        O  0.20997156  0.05150716  0.33553286    -0.74300
O217        O  0.15841529  0.99940238  0.37703246    -0.74200
O218        O  0.21067498  0.11965021  0.38216117    -0.74300
Ni219      Ni  0.25126087  0.02815593  0.40230019     1.25400
Ni220      Ni  0.18248259  0.06040655  0.37882978     1.25400
C221        C  0.25158767  0.12480335  0.39368549     0.88000
C222        C  0.18093299  0.96445430  0.38778876     0.87900
C223        C  0.25031335  0.03374279  0.33197917     0.87900
C224        C  0.18447449  0.05608910  0.44925800     0.88100
C225        C  0.10401815  0.87136883  0.35555679    -0.21100
C226        C  0.08861403  0.85166014  0.38558144    -0.09100
C227        C  0.11090640  0.86299094  0.41577627     0.29700
C228        C  0.14551685  0.89682648  0.41608595    -0.21100
C229        C  0.15781115  0.91947332  0.38633102    -0.09200
C230        C  0.13852934  0.90491336  0.35585893     0.29700
F231        F  0.15050345  0.92586916  0.32672139    -0.19700
H232        H  0.08702667  0.86306828  0.33213266     0.18100
H233        H  0.15946473  0.90833419  0.43984216     0.18100
F234        F  0.09556023  0.84543955  0.44527076    -0.19700
C235        C  0.31896318  0.02903246  0.29419361    -0.21100
C236        C  0.27065524  0.02924184  0.29810621    -0.09100
C237        C  0.24253750  0.02685306  0.26940857     0.29700
C238        C  0.26251821  0.02559040  0.23750072    -0.21100
C239        C  0.31080592  0.02736214  0.23352963    -0.09200
C240        C  0.33893774  0.02845345  0.26228411     0.29700
F241        F  0.38574624  0.02916814  0.25966297    -0.19700
H242        H  0.34138301  0.03070602  0.31586575     0.18100
H243        H  0.24005287  0.02462173  0.21583267     0.18100
F244        F  0.19574491  0.02575626  0.27210768    -0.19700
C245        C  0.44692162  0.90371603  0.17440837    -0.21100
C246        C  0.42375839  0.91561104  0.14482760    -0.09100
C247        C  0.43232470  0.89035262  0.11538405     0.29700
C248        C  0.46750130  0.85699020  0.11491060    -0.21100
C249        C  0.49408921  0.84898469  0.14375629    -0.09200
C250        C  0.48177981  0.87054898  0.17395513     0.29700
F251        F  0.50623935  0.86238121  0.20236975    -0.19700
H252        H  0.44053746  0.92279492  0.19730770     0.18100
H253        H  0.47692407  0.84091171  0.09136861     0.18100
F254        F  0.41085941  0.90182119  0.08632152    -0.19700
C255        C  0.24218747  0.21896853  0.13377639    -0.21100
C256        C  0.27140841  0.25757284  0.13581669    -0.09100
C257        C  0.31948177  0.25072795  0.13728660     0.29700
C258        C  0.33763512  0.20601749  0.13756393    -0.21100
C259        C  0.30835492  0.16733323  0.13594921    -0.09200
C260        C  0.26032721  0.17430629  0.13358901     0.29700
F261        F  0.23069183  0.13810515  0.13210966    -0.19700
H262        H  0.20500862  0.22335663  0.13244676     0.18100
H263        H  0.37478782  0.20170180  0.13924394     0.18100
F264        F  0.34885570  0.28704612  0.13974052    -0.19700
C265        C  0.80141738  0.67666030  0.13137656    -0.21100
C266        C  0.84028966  0.70575392  0.13036411    -0.09100
C267        C  0.83346005  0.75368261  0.12812092     0.29700
C268        C  0.78850719  0.77183715  0.12798597    -0.21100
C269        C  0.74978484  0.74254642  0.12949153    -0.09200
C270        C  0.75672848  0.69467279  0.13083565     0.29700
F271        F  0.72041114  0.66521629  0.13311949    -0.19700
H272        H  0.80552180  0.63958413  0.13295556     0.18100
H273        H  0.78395047  0.80889325  0.12687490     0.18100
F274        F  0.86996453  0.78302509  0.12718493    -0.19700
C275        C  0.97390467  0.74699911  0.23427319    -0.21100
C276        C  0.97835652  0.69910277  0.23024628    -0.09100
C277        C  0.98363804  0.67129100  0.25882073     0.29700
C278        C  0.98372472  0.69115123  0.29080189    -0.21100
C279        C  0.97767190  0.73897053  0.29496609    -0.09200
C280        C  0.97306919  0.76680070  0.26623141     0.29700
F281        F  0.96738173  0.81313386  0.26887143    -0.19700
H282        H  0.96955848  0.76906448  0.21263590     0.18100
H283        H  0.98732812  0.66885190  0.31237269     0.18100
F284        F  0.98892445  0.62494421  0.25586258    -0.19700
C285        C  0.09207034  0.55203383  0.17488071    -0.21100
C286        C  0.08684538  0.57932492  0.14615139    -0.09100
C287        C  0.11818924  0.57397324  0.11945863     0.29700
C288        C  0.15107332  0.53823022  0.12031319    -0.21100
C289        C  0.15257477  0.50782232  0.14771421    -0.09200
C290        C  0.12452293  0.51661603  0.17572646     0.29700
F291        F  0.12628026  0.48885403  0.20307920    -0.19700
H292        H  0.06860919  0.55604726  0.19587914     0.18100
H293        H  0.17245238  0.53191197  0.09848779     0.18100
F294        F  0.11383495  0.59982036  0.09131373    -0.19700
C295        C  0.79748468  0.76504130  0.39070600    -0.21100
C296        C  0.83636825  0.73583986  0.39193244    -0.09100
C297        C  0.82946597  0.68787178  0.39327584     0.29700
C298        C  0.78467829  0.66978994  0.39243628    -0.21100
C299        C  0.74584442  0.69898988  0.39074286    -0.09200
C300        C  0.75267945  0.74695880  0.39033740     0.29700
F301        F  0.71625653  0.77641331  0.38840998    -0.19700
H302        H  0.80172502  0.80213763  0.38983438     0.18100
H303        H  0.78039843  0.63268311  0.39299596     0.18100
F304        F  0.86586732  0.65829285  0.39435031    -0.19700
C305        C  0.59931399  0.76229138  0.25481012    -0.21100
C306        C  0.60961502  0.73523251  0.22664461    -0.09100
C307        C  0.61800025  0.68780967  0.23086693     0.29700
C308        C  0.61737472  0.66827580  0.26292639    -0.21100
C309        C  0.60769226  0.69545756  0.29130568    -0.09200
C310        C  0.59784804  0.74270851  0.28677106     0.29700
F311        F  0.58808268  0.77052449  0.31321920    -0.19700
H312        H  0.59243735  0.79880895  0.25206590     0.18100
H313        H  0.62507550  0.63192011  0.26554549     0.18100
F314        F  0.62885475  0.66072756  0.20422489    -0.19700
C315        C  0.26165653  0.25495367  0.40055547    -0.21100
C316        C  0.30928245  0.26144879  0.39553070    -0.09100
C317        C  0.33786286  0.22229061  0.39140234     0.29700
C318        C  0.31895370  0.17803520  0.39170684    -0.21100
C319        C  0.27126564  0.17169716  0.39561827    -0.09200
C320        C  0.24268944  0.21055841  0.40040870     0.29700
F321        F  0.19648535  0.20565538  0.40529979    -0.19700
H322        H  0.23890496  0.28427402  0.40398851     0.18100
H323        H  0.34158534  0.14866760  0.38799937     0.18100
F324        F  0.38421568  0.22647761  0.38692212    -0.19700
C325        C  0.26220495  0.40053939  0.29408466    -0.21100
C326        C  0.31057129  0.40084304  0.29755882    -0.09100
C327        C  0.33823134  0.40176996  0.26855797     0.29700
C328        C  0.31774039  0.40118218  0.23682204    -0.21100
C329        C  0.26940822  0.39892717  0.23335881    -0.09200
C330        C  0.24173468  0.39921876  0.26238049     0.29700
F331        F  0.19489254  0.39812908  0.26021561    -0.19700
H332        H  0.24011081  0.39988613  0.31599565     0.18100
H333        H  0.33984417  0.40114712  0.21491227     0.18100
F334        F  0.38505296  0.40319091  0.27080594    -0.19700
C335        C  0.45105953  0.51968045  0.35230826    -0.21100
C336        C  0.42589682  0.51245410  0.38187977    -0.09100
C337        C  0.43197492  0.54285430  0.40899857     0.29700
C338        C  0.46647121  0.57693487  0.40749504    -0.21100
C339        C  0.49495621  0.58053824  0.37903811    -0.09200
C340        C  0.48529511  0.55328261  0.35084173     0.29700
F341        F  0.51144870  0.55676787  0.32268828    -0.19700
H342        H  0.44654919  0.49684163  0.33105067     0.18100
H343        H  0.47366132  0.59750269  0.42954501     0.18100
F344        F  0.40837317  0.53641178  0.43801663    -0.19700
C345        C  0.44956657  0.09173045  0.04259514    -0.21100
C346        C  0.41183939  0.06189060  0.04727879    -0.09100
C347        C  0.38783791  0.04568150  0.01888180     0.29700
C348        C  0.39990741  0.06105556  0.98688295    -0.21100
C349        C  0.43571820  0.09310653  0.98249363    -0.09200
C350        C  0.46133524  0.10739708  0.01060328     0.29700
F351        F  0.49740144  0.13696823  0.00728745    -0.19700
H352        H  0.46898752  0.10448188  0.06385970     0.18100
H353        H  0.37986983  0.04926882  0.96561714     0.18100
F354        F  0.35182141  0.01600516  0.02194351    -0.19700
C355        C  0.68125522  0.89887548  0.00625113    -0.21100
C356        C  0.65987247  0.87781836  0.97856402    -0.09100
C357        C  0.62473511  0.84521520  0.98427964     0.29700
C358        C  0.61382174  0.83175634  0.01692859    -0.21100
C359        C  0.63710596  0.85085628  0.04453239    -0.09200
C360        C  0.66987751  0.88585881  0.03893475     0.29700
F361        F  0.69297498  0.90563879  0.06480863    -0.19700
H362        H  0.70800712  0.92453103  0.00260867     0.18100
H363        H  0.58796315  0.80519704  0.02054385     0.18100
F364        F  0.60269050  0.82429352  0.95839980    -0.19700
C365        C  0.64262672  0.04732165  0.91299965    -0.21100
C366        C  0.65070757  0.02338127  0.88293129    -0.09100
C367        C  0.62774858  0.03721551  0.85367558     0.29700
C368        C  0.59371970  0.07116804  0.85518266    -0.21100
C369        C  0.58200332  0.09169640  0.88584562    -0.09200
C370        C  0.60817678  0.08140873  0.91454480     0.29700
F371        F  0.59681570  0.10010966  0.94464206    -0.19700
H372        H  0.65968597  0.03658636  0.93585833     0.18100
H373        H  0.57386333  0.07883388  0.83284502     0.18100
F374        F  0.63557982  0.01516431  0.82418583    -0.19700
C375        C  0.61865325  0.61865110  0.50549268    -0.21100
C376        C  0.63791108  0.59470602  0.47814021    -0.09100
C377        C  0.66800200  0.55750422  0.48448801     0.29700
C378        C  0.68015268  0.54627758  0.51734551    -0.21100
C379        C  0.66228329  0.57135354  0.54456473    -0.09200
C380        C  0.63048212  0.60708391  0.53838518     0.29700
F381        F  0.61276100  0.63255188  0.56391466    -0.19700
H382        H  0.59524796  0.64732564  0.50144445     0.18100
H383        H  0.70443872  0.51834930  0.52146962     0.18100
F384        F  0.68740704  0.53314827  0.45904051    -0.19700
C385        C  0.40493242  0.37403229  0.54381257    -0.21100
C386        C  0.44007559  0.34126503  0.54866731    -0.09100
C387        C  0.46319014  0.32319434  0.52050911     0.29700
C388        C  0.45026268  0.33671921  0.48823186    -0.21100
C389        C  0.41373949  0.36801367  0.48328447    -0.09200
C390        C  0.39159321  0.38713683  0.51156183     0.29700
F391        F  0.35643573  0.41786182  0.50821187    -0.19700
H392        H  0.38652185  0.38846028  0.56505580     0.18100
H393        H  0.46799211  0.32142783  0.46701022     0.18100
F394        F  0.49803587  0.29216958  0.52407209    -0.19700
C395        C  0.47347121  0.27226384  0.76320752    -0.21100
C396        C  0.47982266  0.24336136  0.73522825    -0.09100
C397        C  0.48626653  0.19574708  0.74054786     0.32900
C398        C  0.48352063  0.17744662  0.77287379    -0.21100
C399        C  0.47532129  0.20613824  0.80060264    -0.09200
C400        C  0.47159847  0.25399168  0.79561022     0.29700
F401        F  0.46365391  0.28289527  0.82176970    -0.19700
H402        H  0.46880027  0.30903887  0.75997945     0.18100
H403        H  0.48721036  0.14056504  0.77618858     0.18100
F404        F  0.49323549  0.16640848  0.71451018    -0.19700
C405        C  0.60891395  0.36536426  0.61105330    -0.21100
C406        C  0.58859848  0.35323422  0.64175320    -0.09100
C407        C  0.60488247  0.37311655  0.67149887     0.29700
C408        C  0.63781535  0.40803427  0.67028915    -0.21100
C409        C  0.65492285  0.42339403  0.63944033    -0.09200
C410        C  0.64204727  0.40055158  0.60982616     0.29700
F411        F  0.65725339  0.41580180  0.57961925    -0.19700
H412        H  0.59593070  0.35088671  0.58786888     0.18100
H413        H  0.64738821  0.42553920  0.69325621     0.18100
F414        F  0.58584527  0.36156467  0.70142997    -0.19700
C415        C  0.83255880  0.71960654  0.89093422    -0.21100
C416        C  0.80352177  0.68085659  0.88883761    -0.09100
C417        C  0.75545403  0.68760474  0.88683311     0.29700
C418        C  0.73706761  0.73225046  0.88672363    -0.21100
C419        C  0.76606632  0.77106864  0.88898194    -0.09200
C420        C  0.81416859  0.76424335  0.89124673     0.29700
F421        F  0.84361744  0.80058251  0.89293487    -0.19700
H422        H  0.86973364  0.71534575  0.89246437     0.18100
H423        H  0.69991632  0.73640411  0.88485519     0.18100
F424        F  0.72627707  0.65119960  0.88390208    -0.19700
C425        C  0.95180216  0.60183867  0.98368411    -0.21100
C426        C  0.91136192  0.57569366  0.97892791    -0.09100
C427        C  0.88731738  0.55975951  0.00740366     0.29700
C428        C  0.90275888  0.57078542  0.03954876    -0.21100
C429        C  0.94200198  0.59841695  0.04428452    -0.09200
C430        C  0.96689344  0.61339217  0.01598353     0.29700
F431        F  0.00555857  0.63945469  0.01946103    -0.19700
H432        H  0.97121302  0.61443251  0.96234931     0.18100
H433        H  0.88270697  0.55909323  0.06085744     0.18100
F434        F  0.84817176  0.53430942  0.00442199    -0.19700
C435        C  0.83429555  0.53608438  0.76565449    -0.21100
C436        C  0.80573309  0.53575423  0.79413059    -0.09100
C437        C  0.75750320  0.53203830  0.78979683     0.29700
C438        C  0.73842436  0.53109587  0.75762132    -0.21100
C439        C  0.76692424  0.53290409  0.72916270    -0.09200
C440        C  0.81525258  0.53424303  0.73348832     0.29700
F441        F  0.84414174  0.53610530  0.70670141    -0.19700
H442        H  0.87149124  0.53845529  0.76825728     0.18100
H443        H  0.70118143  0.52970344  0.75497193     0.18100
F444        F  0.72848854  0.53138577  0.81654204    -0.19700
C445        C  0.27324594  0.26545573  0.90565986    -0.21100
C446        C  0.23606784  0.23780710  0.89527252    -0.09100
C447        C  0.24457278  0.19224537  0.88524645     0.29700
C448        C  0.28974299  0.17496336  0.88521656    -0.21100
C449        C  0.32727731  0.20260328  0.89544199    -0.09200
C450        C  0.31838094  0.24807815  0.90607468     0.29700
F451        F  0.35313853  0.27610558  0.91637358    -0.19700
H452        H  0.26726852  0.30077311  0.91348204     0.18100
H453        H  0.29530236  0.13986230  0.87680306     0.18100
F454        F  0.20959686  0.16516617  0.87399814    -0.19700
C455        C  0.12809240  0.32953326  0.04407468    -0.21100
C456        C  0.16181573  0.36368768  0.04899974    -0.09100
C457        C  0.17917156  0.38745706  0.02094969     0.29700
C458        C  0.16407883  0.37613925  0.98872710    -0.21100
C459        C  0.13187419  0.34058164  0.98363536    -0.09200
C460        C  0.11341870  0.31777747  0.01180643     0.29700
F461        F  0.08192316  0.28344080  0.00829222    -0.19700
H462        H  0.11414573  0.31065374  0.06520329     0.18100
H463        H  0.17897509  0.39427825  0.96759965     0.18100
F464        F  0.21115697  0.42131867  0.02451341    -0.19700
C465        C  0.97887280  0.38344973  0.85336208    -0.21100
C466        C  0.98622912  0.35777680  0.88261629    -0.09100
C467        C  0.95657044  0.36428617  0.91018175     0.29700
C468        C  0.92353044  0.39991566  0.90955423    -0.21100
C469        C  0.92017994  0.42897122  0.88147940    -0.09200
C470        C  0.94620478  0.41869920  0.85271761     0.29700
F471        F  0.94249568  0.44510414  0.82476576    -0.19700
H472        H  0.00104023  0.37852597  0.83173886     0.18100
H473        H  0.90367124  0.40735174  0.93193861     0.18100
F474        F  0.96291716  0.33987636  0.93880335    -0.19700
C475        C  0.28373139  0.17477414  0.63238937    -0.21100
C476        C  0.24531612  0.20387456  0.63679842    -0.09100
C477        C  0.25244187  0.25121246  0.64190609     0.29700
C478        C  0.29741553  0.26876612  0.64319489    -0.21100
C479        C  0.33599588  0.23957576  0.63904414    -0.09200
C480        C  0.32861399  0.19229865  0.63327756     0.29700
F481        F  0.36459049  0.16269504  0.62917756    -0.19700
H482        H  0.27898490  0.13812080  0.62836017     0.18100
H483        H  0.30198785  0.30535288  0.64755239     0.18100
F484        F  0.21617349  0.28016113  0.64701173    -0.19700
C485        C  0.13280784  0.09979534  0.48798538    -0.21100
C486        C  0.16733049  0.06627149  0.48340470    -0.09100
C487        C  0.18742269  0.04557051  0.51180063     0.29700
C488        C  0.17438601  0.05960829  0.54395234    -0.21100
C489        C  0.14154710  0.09481326  0.54850143    -0.09200
C490        C  0.12014351  0.11419556  0.52010613     0.29700
F491        F  0.08753370  0.14765397  0.52321715    -0.19700
H492        H  0.11672680  0.11629890  0.46659706     0.18100
H493        H  0.19130812  0.04393993  0.56532951     0.18100
F494        F  0.22024159  0.01232738  0.50860859    -0.19700
C495        C  0.09696856  0.24904434  0.73622392    -0.21100
C496        C  0.10246784  0.20104347  0.73278689    -0.09100
C497        C  0.10471189  0.17367410  0.76182733     0.29700
C498        C  0.10241087  0.19409619  0.79348016    -0.21100
C499        C  0.09868175  0.24216118  0.79690579    -0.09200
C500        C  0.09549621  0.26954642  0.76796595     0.29700
F501        F  0.09084917  0.31602551  0.77031868    -0.19700
H502        H  0.09505518  0.27092454  0.71431579     0.18100
H503        H  0.10506914  0.17230864  0.81540590     0.18100
F504        F  0.10934776  0.12717086  0.75976422    -0.19700
C505        C  0.83390425  0.72632775  0.63848376    -0.21100
C506        C  0.80533323  0.76540202  0.63547890    -0.09100
C507        C  0.75722095  0.75925488  0.63272619     0.29700
C508        C  0.73842521  0.71480834  0.63314831    -0.21100
C509        C  0.76722038  0.67586578  0.63584192    -0.09200
C510        C  0.81520773  0.68205792  0.63857787     0.29700
F511        F  0.84402886  0.64543791  0.64238477    -0.19700
H512        H  0.87105601  0.72995500  0.64081471     0.18100
H513        H  0.70127504  0.71080958  0.63112349     0.18100
F514        F  0.72827093  0.79600221  0.63042210    -0.19700
C515        C  0.90245854  0.89200631  0.51967273    -0.21100
C516        C  0.91765375  0.86614726  0.54728022    -0.09100
C517        C  0.94751390  0.82853660  0.54180889     0.29700
C518        C  0.95988774  0.81589316  0.50920758    -0.21100
C519        C  0.94316169  0.84060290  0.48142571    -0.09200
C520        C  0.91525188  0.87973359  0.48709482     0.29700
F521        F  0.89867379  0.90519577  0.46123064    -0.19700
H522        H  0.87978230  0.92140147  0.52326397     0.18100
H523        H  0.98166084  0.78581799  0.50571766     0.18100
F524        F  0.96269468  0.80232975  0.56773792    -0.19700
C525        C  0.75999483  0.91296813  0.73307463    -0.21100
C526        C  0.80824549  0.90808541  0.73017483    -0.09100
C527        C  0.83511277  0.90587179  0.75951549     0.29700
C528        C  0.81396819  0.90774949  0.79094390    -0.21100
C529        C  0.76566439  0.91097893  0.79384024    -0.09200
C530        C  0.73876488  0.91396245  0.76457782     0.29700
F531        F  0.69202169  0.91776428  0.76635398    -0.19700
H532        H  0.73849143  0.91465932  0.71092984     0.18100
H533        H  0.83539782  0.90513057  0.81308520     0.18100
F534        F  0.88182370  0.90156088  0.75796861    -0.19700
C535        C  0.95388381  0.02181868  0.67407660    -0.21100
C536        C  0.92902177  0.01292619  0.64466172    -0.09100
C537        C  0.93492334  0.04196157  0.61677929     0.29700
C538        C  0.96870528  0.07671757  0.61754911    -0.21100
C539        C  0.99659232  0.08239204  0.64606758    -0.09200
C540        C  0.98730484  0.05623450  0.67486537     0.29700
F541        F  0.01306859  0.06167146  0.70302943    -0.19700
H542        H  0.94948161  0.00001524  0.69587787     0.18100
H543        H  0.97581147  0.09625462  0.59502027     0.18100
F544        F  0.91178123  0.03360597  0.58783764    -0.19700
loop_ 
_geom_bond_atom_site_label_1 
_geom_bond_atom_site_label_2 
_geom_bond_distance 
_geom_bond_site_symmetry_2 
_ccdc_geom_bond_type 
O1           Ni9   1.929       .  S
O1           C11   1.284       .  A
O2           Ni9   1.930       .  S
O2           C12   1.282       .  A
O3           Ni9   1.913       .  S
O3           C13   1.281       .  A
O4           Ni9   1.916       .  S
O4           C14   1.281       .  A
O5          Ni10   1.915       .  S
O5           C14   1.281       .  A
O6          Ni10   1.919       .  S
O6           C13   1.282       .  A
O7          Ni10   1.900       .  S
O7           C12   1.279       .  A
O8          Ni10   1.900       .  S
O8           C11   1.278       .  A
Ni9         Ni10   2.388       .  S
C11         C506   1.479       .  S
C12         C536   1.470   1_565  S
C13         C516   1.479       .  S
C14         C526   1.480       .  S
O15         Ni23   1.930       .  S
O15          C25   1.284       .  A
O16         Ni23   1.932       .  S
O16          C26   1.283       .  A
O17         Ni23   1.914       .  S
O17          C27   1.281       .  A
O18         Ni23   1.911       .  S
O18          C28   1.280       .  A
O19         Ni24   1.919       .  S
O19          C28   1.282       .  A
O20         Ni24   1.918       .  S
O20          C27   1.282       .  A
O21         Ni24   1.896       .  S
O21          C26   1.278       .  A
O22         Ni24   1.898       .  S
O22          C25   1.277       .  A
Ni23        Ni24   2.388       .  S
C25         C476   1.473       .  S
C26         C539   1.470   1_455  S
C27         C496   1.480       .  S
C28         C489   1.480       .  S
O29         Ni37   1.931       .  S
O29          C39   1.285       .  A
O30         Ni37   1.936       .  S
O30          C40   1.284       .  A
O31         Ni37   1.911       .  S
O31          C41   1.280       .  A
O32         Ni37   1.912       .  S
O32          C42   1.280       .  A
O33         Ni38   1.921       .  S
O33          C42   1.283       .  A
O34         Ni38   1.921       .  S
O34          C41   1.282       .  A
O35         Ni38   1.898       .  S
O35          C40   1.278       .  A
O36         Ni38   1.902       .  S
O36          C39   1.277       .  A
Ni37        Ni38   2.389       .  S
C39         C446   1.473       .  S
C40         C466   1.473   1_455  S
C41         C499   1.477       .  S
C42         C459   1.483       .  S
O43         Ni51   1.928       .  S
O43          C53   1.284       .  A
O44         Ni51   1.931       .  S
O44          C54   1.282       .  A
O45         Ni51   1.911       .  S
O45          C55   1.281       .  A
O46         Ni51   1.913       .  S
O46          C56   1.280       .  A
O47         Ni52   1.922       .  S
O47          C56   1.283       .  A
O48         Ni52   1.925       .  S
O48          C55   1.283       .  A
O49         Ni52   1.904       .  S
O49          C54   1.279       .  A
O50         Ni52   1.909       .  S
O50          C53   1.279       .  A
Ni51        Ni52   2.386       .  S
C53         C416   1.480       .  S
C54         C469   1.473       .  S
C55         C426   1.487       .  S
C56         C436   1.482       .  S
O57         Ni65   1.921       .  S
O57          C67   1.283       .  A
O58         Ni65   1.923       .  S
O58          C68   1.280       .  A
O59         Ni65   1.921       .  S
O59          C69   1.282       .  A
O60         Ni65   1.914       .  S
O60          C70   1.281       .  A
O61         Ni66   1.917       .  S
O61          C70   1.282       .  A
O62         Ni66   1.916       .  S
O62          C69   1.282       .  A
O63         Ni66   1.902       .  S
O63          C68   1.279       .  A
O64         Ni66   1.906       .  S
O64          C67   1.279       .  A
Ni65        Ni66   2.388       .  S
C67         C479   1.480       .  S
C68         C406   1.463       .  S
C69         C396   1.485       .  S
C70         C386   1.479       .  S
O71         Ni79   1.920       .  S
O71          C81   1.283       .  A
O72         Ni79   1.922       .  S
O72          C82   1.280       .  A
O73         Ni79   1.910       .  S
O73          C83   1.281       .  A
O74         Ni79   1.914       .  S
O74          C84   1.281       .  A
O75         Ni80   1.920       .  S
O75          C84   1.283       .  A
O76         Ni80   1.921       .  S
O76          C83   1.282       .  A
O77         Ni80   1.903       .  S
O77          C82   1.279       .  A
O78         Ni80   1.908       .  S
O78          C81   1.279       .  A
Ni79        Ni80   2.390       .  S
C81         C509   1.475       .  S
C82         C409   1.463       .  S
C83         C379   1.478       .  S
C84         C439   1.480       .  S
O85         Ni93   1.925       .  S
O85          C95   1.284       .  A
O86         Ni93   1.927       .  S
O86          C96   1.281       .  A
O87         Ni93   1.911       .  S
O87          C97   1.281       .  A
O88         Ni93   1.914       .  S
O88          C98   1.281       .  A
O89         Ni94   1.917       .  S
O89          C98   1.281       .  A
O90         Ni94   1.920       .  S
O90          C97   1.282       .  A
O91         Ni94   1.905       .  S
O91          C96   1.279       .  A
O92         Ni94   1.910       .  S
O92          C95   1.280       .  A
Ni93        Ni94   2.388       .  S
C95         C419   1.483       .  S
C96         C366   1.469   1_565  S
C97         C356   1.481       .  S
C98         C529   1.477       .  S
O99        Ni107   1.930       .  S
O99         C109   1.285       .  A
O100       Ni107   1.930       .  S
O100        C110   1.282       .  A
O101       Ni107   1.920       .  S
O101        C111   1.281       .  A
O102       Ni107   1.914       .  S
O102        C112   1.281       .  A
O103       Ni108   1.919       .  S
O103        C112   1.282       .  A
O104       Ni108   1.916       .  S
O104        C111   1.282       .  A
O105       Ni108   1.898       .  S
O105        C110   1.278       .  A
O106       Ni108   1.905       .  S
O106        C109   1.279       .  A
Ni107      Ni108   2.388       .  S
C109        C449   1.486       .  S
C110        C369   1.468       .  S
C111        C399   1.478       .  S
C112        C349   1.479       .  S
O113       Ni121   1.934       .  S
O113        C123   1.286       .  A
O114       Ni121   1.937       .  S
O114        C124   1.284       .  A
O115       Ni121   1.915       .  S
O115        C125   1.281       .  A
O116       Ni121   1.911       .  S
O116        C126   1.280       .  A
O117       Ni122   1.922       .  S
O117        C126   1.283       .  A
O118       Ni122   1.920       .  S
O118        C125   1.282       .  A
O119       Ni122   1.896       .  S
O119        C124   1.278       .  A
O120       Ni122   1.899       .  S
O120        C123   1.277       .  A
Ni121      Ni122   2.387       .  S
C123        C316   1.484       .  S
C124        C336   1.473       .  S
C125        C326   1.480       .  S
C126        C389   1.483       .  S
O127       Ni135   1.929       .  S
O127        C137   1.284       .  A
O128       Ni135   1.931       .  S
O128        C138   1.282       .  A
O129       Ni135   1.911       .  S
O129        C139   1.280       .  A
O130       Ni135   1.915       .  S
O130        C140   1.281       .  A
O131       Ni136   1.922       .  S
O131        C140   1.283       .  A
O132       Ni136   1.921       .  S
O132        C139   1.283       .  A
O133       Ni136   1.904       .  S
O133        C138   1.279       .  A
O134       Ni136   1.906       .  S
O134        C137   1.279       .  A
Ni135      Ni136   2.386       .  S
C137        C299   1.481       .  S
C138        C339   1.473       .  S
C139        C376   1.483       .  S
C140        C309   1.486       .  S
O141       Ni149   1.934       .  S
O141        C151   1.285       .  A
O142       Ni149   1.937   1_455  S
O142        C152   1.284       .  A
O143       Ni149   1.917       .  S
O143        C153   1.281       .  A
O144       Ni149   1.919       .  S
O144        C154   1.282       .  A
O145       Ni150   1.919       .  S
O145        C154   1.282       .  A
O146       Ni150   1.920       .  S
O146        C153   1.283       .  A
O147       Ni150   1.895   1_455  S
O147        C152   1.277       .  A
O148       Ni150   1.897       .  S
O148        C151   1.278       .  A
Ni149      Ni150   2.388       .  S
C151        C266   1.480       .  S
C152        C286   1.473       .  S
C153        C429   1.481       .  S
C154        C276   1.479       .  S
O155       Ni163   1.927       .  S
O155        C165   1.284       .  A
O156       Ni163   1.930       .  S
O156        C166   1.282       .  A
O157       Ni163   1.917       .  S
O157        C167   1.281       .  A
O158       Ni163   1.915       .  S
O158        C168   1.281       .  A
O159       Ni164   1.919       .  S
O159        C168   1.282       .  A
O160       Ni164   1.918       .  S
O160        C167   1.282       .  A
O161       Ni164   1.902       .  S
O161        C166   1.279       .  A
O162       Ni164   1.905       .  S
O162        C165   1.279       .  A
Ni163      Ni164   2.388       .  S
C165        C256   1.478       .  S
C166        C289   1.473       .  S
C167        C329   1.481       .  S
C168        C456   1.481       .  S
O169       Ni177   1.924       .  S
O169        C179   1.284       .  A
O170       Ni177   1.927   1_565  S
O170        C180   1.282       .  A
O171       Ni177   1.917       .  S
O171        C181   1.281       .  A
O172       Ni177   1.912       .  S
O172        C182   1.280       .  A
O173       Ni178   1.920       .  S
O173        C182   1.283       .  A
O174       Ni178   1.917       .  S
O174        C181   1.282       .  A
O175       Ni178   1.902   1_565  S
O175        C180   1.279       .  A
O176       Ni178   1.906       .  S
O176        C179   1.279       .  A
Ni177      Ni178   2.387       .  S
C179        C259   1.480       .  S
C180        C246   1.467       .  S
C181        C239   1.481       .  S
C182        C346   1.483       .  S
O183       Ni191   1.921       .  S
O183        C193   1.283       .  A
O184       Ni191   1.925       .  S
O184        C194   1.281       .  A
O185       Ni191   1.912       .  S
O185        C195   1.281       .  A
O186       Ni191   1.917       .  S
O186        C196   1.281       .  A
O187       Ni192   1.919       .  S
O187        C196   1.282       .  A
O188       Ni192   1.920       .  S
O188        C195   1.282       .  A
O189       Ni192   1.903       .  S
O189        C194   1.279       .  A
O190       Ni192   1.910       .  S
O190        C193   1.279       .  A
Ni191      Ni192   2.389       .  S
C193        C269   1.477       .  S
C194        C249   1.467       .  S
C195        C359   1.480       .  S
C196        C306   1.477       .  S
O197       Ni205   1.925       .  S
O197        C207   1.284       .  A
O198       Ni205   1.927   1_455  S
O198        C208   1.282       .  A
O199       Ni205   1.915       .  S
O199        C209   1.282       .  A
O200       Ni205   1.921       .  S
O200        C210   1.282       .  A
O201       Ni206   1.917       .  S
O201        C210   1.282       .  A
O202       Ni206   1.918       .  S
O202        C209   1.282       .  A
O203       Ni206   1.906   1_455  S
O203        C208   1.279       .  A
O204       Ni206   1.909       .  S
O204        C207   1.280       .  A
Ni205      Ni206   2.387       .  S
C207        C296   1.482       .  S
C208        C226   1.468       .  S
C209        C519   1.484       .  S
C210        C279   1.485       .  S
O211       Ni219   1.926       .  S
O211        C221   1.284       .  A
O212       Ni219   1.929   1_565  S
O212        C222   1.282       .  A
O213       Ni219   1.915       .  S
O213        C223   1.281       .  A
O214       Ni219   1.911       .  S
O214        C224   1.280       .  A
O215       Ni220   1.918       .  S
O215        C224   1.282       .  A
O216       Ni220   1.919       .  S
O216        C223   1.282       .  A
O217       Ni220   1.903   1_565  S
O217        C222   1.279       .  A
O218       Ni220   1.907       .  S
O218        C221   1.278       .  A
Ni219      Ni220   2.389       .  S
C221        C319   1.477       .  S
C222        C229   1.468       .  S
C223        C236   1.480       .  S
C224        C486   1.479       .  S
C225        C226   1.401       .  A
C225        C230   1.395       .  A
C225        H232   1.084       .  S
C226        C227   1.406       .  A
C227        C228   1.403       .  A
C227        F234   1.358       .  S
C228        C229   1.404       .  A
C228        H233   1.083       .  S
C229        C230   1.403       .  A
C230        F231   1.358       .  S
C235        C236   1.405       .  A
C235        C240   1.398       .  A
C235        H242   1.082       .  S
C236        C237   1.407       .  A
C237        C238   1.399       .  A
C237        F244   1.358       .  S
C238        C239   1.406       .  A
C238        H243   1.082       .  S
C239        C240   1.408       .  A
C240        F241   1.357       .  S
C245        C246   1.401       .  A
C245        C250   1.392       .  A
C245        H252   1.084       .  S
C246        C247   1.406       .  A
C247        C248   1.403       .  A
C247        F254   1.358       .  S
C248        C249   1.404       .  A
C248        H253   1.083       .  S
C249        C250   1.403       .  A
C250        F251   1.358       .  S
C255        C256   1.406       .  A
C255        C260   1.397       .  A
C255        H262   1.084       .  S
C256        C257   1.405       .  A
C257        C258   1.398       .  A
C257        F264   1.357       .  S
C258        C259   1.408       .  A
C258        H263   1.083       .  S
C259        C260   1.406       .  A
C260        F261   1.357       .  S
C265        C266   1.407       .  A
C265        C270   1.393       .  A
C265        H272   1.083       .  S
C266        C267   1.407       .  A
C267        C268   1.402       .  A
C267        F274   1.357       .  S
C268        C269   1.408       .  A
C268        H273   1.083       .  S
C269        C270   1.404       .  A
C270        F271   1.358       .  S
C275        C276   1.404       .  A
C275        C280   1.399       .  A
C275        H282   1.083       .  S
C276        C277   1.406       .  A
C277        C278   1.400       .  A
C277        F284   1.358       .  S
C278        C279   1.407       .  A
C278        H283   1.082       .  S
C279        C280   1.409       .  A
C280        F281   1.357       .  S
C285        C286   1.402       .  A
C285        C290   1.391       .  A
C285        H292   1.084       .  S
C286        C287   1.407       .  A
C287        C288   1.406       .  A
C287        F294   1.357       .  S
C288        C289   1.406       .  A
C288        H293   1.083       .  S
C289        C290   1.404       .  A
C290        F291   1.358       .  S
C295        C296   1.407       .  A
C295        C300   1.398       .  A
C295        H302   1.084       .  S
C296        C297   1.407       .  A
C297        C298   1.398       .  A
C297        F304   1.357       .  S
C298        C299   1.407       .  A
C298        H303   1.084       .  S
C299        C300   1.405       .  A
C300        F301   1.357       .  S
C305        C306   1.402       .  A
C305        C310   1.398       .  A
C305        H312   1.083       .  S
C306        C307   1.406       .  A
C307        C308   1.400       .  A
C307        F314   1.358       .  S
C308        C309   1.407       .  A
C308        H313   1.082       .  S
C309        C310   1.411       .  A
C310        F311   1.357       .  S
C315        C316   1.404       .  A
C315        C320   1.400       .  A
C315        H322   1.083       .  S
C316        C317   1.413       .  A
C317        C318   1.396       .  A
C317        F324   1.358       .  S
C318        C319   1.400       .  A
C318        H323   1.083       .  S
C319        C320   1.409       .  A
C320        F321   1.358       .  S
C325        C326   1.405       .  A
C325        C330   1.398       .  A
C325        H332   1.083       .  S
C326        C327   1.407       .  A
C327        C328   1.399       .  A
C327        F334   1.357       .  S
C328        C329   1.406       .  A
C328        H333   1.083       .  S
C329        C330   1.407       .  A
C330        F331   1.358       .  S
C335        C336   1.402       .  A
C335        C340   1.391       .  A
C335        H342   1.084       .  S
C336        C337   1.407       .  A
C337        C338   1.406       .  A
C337        F344   1.357       .  S
C338        C339   1.407       .  A
C338        H343   1.083       .  S
C339        C340   1.403       .  A
C340        F341   1.358       .  S
C345        C346   1.406       .  A
C345        C350   1.398       .  A
C345        H352   1.083       .  S
C346        C347   1.410       .  A
C347        C348   1.398   1_554  A
C347        F354   1.357       .  S
C348        C349   1.403       .  A
C348        H353   1.083       .  S
C349        C350   1.407   1_556  A
C350        F351   1.358       .  S
C355        C356   1.406   1_554  A
C355        C360   1.398       .  A
C355        H362   1.084       .  S
C356        C357   1.407       .  A
C357        C358   1.397   1_556  A
C357        F364   1.357       .  S
C358        C359   1.405       .  A
C358        H363   1.084       .  S
C359        C360   1.408       .  A
C360        F361   1.357       .  S
C365        C366   1.405       .  A
C365        C370   1.404       .  A
C365        H372   1.083       .  S
C366        C367   1.402       .  A
C367        C368   1.392       .  A
C367        F374   1.358       .  S
C368        C369   1.402       .  A
C368        H373   1.084       .  S
C369        C370   1.405       .  A
C370        F371   1.358       .  S
C375        C376   1.407       .  A
C375        C380   1.398       .  A
C375        H382   1.084       .  S
C376        C377   1.408       .  A
C377        C378   1.397       .  A
C377        F384   1.357       .  S
C378        C379   1.405       .  A
C378        H383   1.084       .  S
C379        C380   1.406       .  A
C380        F381   1.358       .  S
C385        C386   1.404       .  A
C385        C390   1.397       .  A
C385        H392   1.084       .  S
C386        C387   1.408       .  A
C387        C388   1.398       .  A
C387        F394   1.357       .  S
C388        C389   1.406       .  A
C388        H393   1.084       .  S
C389        C390   1.410       .  A
C390        F391   1.358       .  S
C395        C396   1.407       .  A
C395        C400   1.399       .  A
C395        H402   1.083       .  S
C396        C397   1.409       .  A
C397        C398   1.398       .  A
C397        F404   1.357       .  S
C398        C399   1.404       .  A
C398        H403   1.083       .  S
C399        C400   1.406       .  A
C400        F401   1.358       .  S
C405        C406   1.404       .  A
C405        C410   1.402       .  A
C405        H412   1.083       .  S
C406        C407   1.401       .  A
C407        C408   1.392       .  A
C407        F414   1.358       .  S
C408        C409   1.400       .  A
C408        H413   1.084       .  S
C409        C410   1.405       .  A
C410        F411   1.358       .  S
C415        C416   1.406       .  A
C415        C420   1.399       .  A
C415        H422   1.083       .  S
C416        C417   1.406       .  A
C417        C418   1.399       .  A
C417        F424   1.357       .  S
C418        C419   1.407       .  A
C418        H423   1.083       .  S
C419        C420   1.407       .  A
C420        F421   1.357       .  S
C425        C426   1.407       .  A
C425        C430   1.402   1_556  A
C425        H432   1.084       .  S
C426        C427   1.411   1_556  A
C427        C428   1.396       .  A
C427        F434   1.357       .  S
C428        C429   1.403       .  A
C428        H433   1.084       .  S
C429        C430   1.408       .  A
C430        F431   1.357   1_655  S
C435        C436   1.405       .  A
C435        C440   1.398       .  A
C435        H442   1.083       .  S
C436        C437   1.410       .  A
C437        C438   1.398       .  A
C437        F444   1.357       .  S
C438        C439   1.404       .  A
C438        H443   1.083       .  S
C439        C440   1.409       .  A
C440        F441   1.358       .  S
C445        C446   1.405       .  A
C445        C450   1.398       .  A
C445        H452   1.084       .  S
C446        C447   1.402       .  A
C447        C448   1.398       .  A
C447        F454   1.358       .  S
C448        C449   1.410       .  A
C448        H453   1.083       .  S
C449        C450   1.408       .  A
C450        F451   1.357       .  S
C455        C456   1.405       .  A
C455        C460   1.398       .  A
C455        H462   1.084       .  S
C456        C457   1.408       .  A
C457        C458   1.397   1_554  A
C457        F464   1.357       .  S
C458        C459   1.405       .  A
C458        H463   1.084       .  S
C459        C460   1.410   1_556  A
C460        F461   1.358       .  S
C465        C466   1.402       .  A
C465        C470   1.391       .  A
C465        H472   1.084   1_655  S
C466        C467   1.407       .  A
C467        C468   1.406       .  A
C467        F474   1.357       .  S
C468        C469   1.406       .  A
C468        H473   1.083       .  S
C469        C470   1.404       .  A
C470        F471   1.358       .  S
C475        C476   1.405       .  A
C475        C480   1.395       .  A
C475        H482   1.084       .  S
C476        C477   1.403       .  A
C477        C478   1.398       .  A
C477        F484   1.357       .  S
C478        C479   1.409       .  A
C478        H483   1.083       .  S
C479        C480   1.407       .  A
C480        F481   1.357       .  S
C485        C486   1.404       .  A
C485        C490   1.396       .  A
C485        H492   1.084       .  S
C486        C487   1.409       .  A
C487        C488   1.397       .  A
C487        F494   1.358       .  S
C488        C489   1.405       .  A
C488        H493   1.084       .  S
C489        C490   1.409       .  A
C490        F491   1.357       .  S
C495        C496   1.407       .  A
C495        C500   1.400       .  A
C495        H502   1.082       .  S
C496        C497   1.407       .  A
C497        C498   1.396       .  A
C497        F504   1.357       .  S
C498        C499   1.404       .  A
C498        H503   1.083       .  S
C499        C500   1.406       .  A
C500        F501   1.358       .  S
C505        C506   1.407       .  A
C505        C510   1.394       .  A
C505        H512   1.083       .  S
C506        C507   1.407       .  A
C507        C508   1.400       .  A
C507        F514   1.357       .  S
C508        C509   1.406       .  A
C508        H513   1.084       .  S
C509        C510   1.404       .  A
C510        F511   1.358       .  S
C515        C516   1.404       .  A
C515        C520   1.397       .  A
C515        H522   1.084       .  S
C516        C517   1.407       .  A
C517        C518   1.398       .  A
C517        F524   1.358       .  S
C518        C519   1.407       .  A
C518        H523   1.084       .  S
C519        C520   1.409       .  A
C520        F521   1.357       .  S
C525        C526   1.407       .  A
C525        C530   1.399       .  A
C525        H532   1.082       .  S
C526        C527   1.407       .  A
C527        C528   1.396       .  A
C527        F534   1.357       .  S
C528        C529   1.404       .  A
C528        H533   1.082       .  S
C529        C530   1.406       .  A
C530        F531   1.358       .  S
C535        C536   1.401       .  A
C535        C540   1.391       .  A
C535        H542   1.084       .  S
C536        C537   1.407       .  A
C537        C538   1.405       .  A
C537        F544   1.357       .  S
C538        C539   1.405       .  A
C538        H543   1.083       .  S
C539        C540   1.404       .  A
C540        F541   1.358   1_655  S
