geometry optimzed in LAMMPS
_audit_creation_date              2020-12-01 
_audit_creation_method            'lammps2cif' 
_symmetry_space_group_name_H-M    'P1' 
_symmetry_Int_Tables_number       1 
_symmetry_cell_setting            triclinic 
loop_ 
_symmetry_equiv_pos_as_xyz 
  x,y,z 
_cell_length_a                    38.72486619 
_cell_length_b                    39.43950751792404 
_cell_length_c                    38.8667679509584 
_cell_angle_alpha                 91.13930030131958 
_cell_angle_beta                  87.6218238187047 
_cell_angle_gamma                 92.1934088267116 
loop_ 
_atom_site_label 
_atom_site_type_symbol 
_atom_site_fract_x 
_atom_site_fract_y 
_atom_site_fract_z 
_atom_site_charge 
C1          C  0.82717274  0.82510055  0.02787141     0.81400
N2          N  0.85980113  0.83790660  0.02065020    -0.76900
C3          C  0.87307656  0.83722559  0.98773627     0.83900
N4          N  0.85377901  0.82463243  0.96215632    -0.76800
C5          C  0.82129832  0.81235771  0.96857414     0.84000
N6          N  0.80756136  0.81256812  0.00157122    -0.78500
C7          C  0.75850402  0.23943061  0.03673252     0.81400
N8          N  0.75277845  0.25458888  0.00604429    -0.76900
C9          C  0.75696736  0.23629125  0.97580372     0.83900
N10         N  0.76706502  0.20397657  0.97658905    -0.76800
C11         C  0.77257139  0.18919939  0.00669921     0.84000
N12         N  0.76884667  0.20699192  0.03660011    -0.78500
C13         C  0.24538324  0.85187411  0.03662659     0.81400
N14         N  0.24908818  0.83543299  0.00556156    -0.76900
C15         C  0.25055826  0.85377070  0.97613557     0.83900
N16         N  0.24813196  0.88786979  0.97790200    -0.76800
C17         C  0.24474365  0.90401553  0.00872799     0.84000
N18         N  0.24289920  0.88602846  0.03800908    -0.78500
C19         C  0.80844308  0.07653936  0.75850283     0.81400
N20         N  0.79249091  0.04529502  0.75395068    -0.76900
C21         C  0.81142813  0.01677905  0.75550388     0.83900
N22         N  0.84554954  0.01980236  0.76203624    -0.76800
C23         C  0.86113040  0.05079312  0.76630271     0.84000
N24         N  0.84252793  0.07893070  0.76483789    -0.78500
C25         C  0.98810988  0.27186958  0.77662790     0.81400
N26         N  0.01863218  0.26869919  0.75795068    -0.76900
C27         C  0.04899377  0.26855986  0.77480094     0.83900
N28         N  0.04842304  0.27099918  0.80964208    -0.76800
C29         C  0.01822741  0.27433087  0.82789277     0.84000
N30         N  0.98824092  0.27435249  0.81139231    -0.78500
C31         C  0.98872626  0.85895908  0.77063699     0.81400
N32         N  0.99628032  0.89224052  0.77826249    -0.76900
C33         C  0.02957327  0.90449596  0.77586918     0.83900
N34         N  0.05515136  0.88356848  0.76665732    -0.76800
C35         C  0.04827866  0.85051020  0.75931656     0.84000
N36         N  0.01494286  0.83784027  0.76139744    -0.78500
C37         C  0.24864797  0.08189879  0.79643877     0.81400
N38         N  0.24608946  0.08909829  0.83036901    -0.76900
C39         C  0.24149720  0.06440643  0.85360706     0.83900
N40         N  0.23905810  0.03144292  0.84295320    -0.76800
C41         C  0.24231414  0.02336555  0.80875519     0.84000
N42         N  0.24667749  0.04879723  0.78515026    -0.78500
C43         C  0.98777447  0.79820031  0.18839550     0.81400
N44         N  0.99160032  0.81388902  0.15771100    -0.76900
C45         C  0.02344832  0.82057230  0.14329656     0.83900
N46         N  0.05186938  0.81209853  0.15974885    -0.76800
C47         C  0.04875610  0.79642789  0.19049045     0.84000
N48         N  0.01651754  0.78953952  0.20519395    -0.78500
C49         C  0.78856123  0.07601336  0.20412229     0.81400
N50         N  0.80035824  0.07187796  0.17086833    -0.76900
C51         C  0.80362547  0.04026054  0.15697515     0.83900
N52         N  0.79563163  0.01282379  0.17618425    -0.76800
C53         C  0.78393190  0.01611482  0.20918271     0.84000
N54         N  0.78023430  0.04789073  0.22356482    -0.78500
C55         C  0.97594750  0.23996747  0.25104670     0.81400
N56         N  0.97117348  0.20832789  0.23812357    -0.76900
C57         C  0.99815511  0.18936827  0.22855855     0.83900
N58         N  0.03093525  0.20214022  0.23130851    -0.76800
C59         C  0.03668745  0.23387222  0.24470955     0.84000
N60         N  0.00897266  0.25324601  0.25440050    -0.78500
Zr61       Zr  0.29415264  0.34206703  0.29426075     2.17500
O62         O  0.32763747  0.36225070  0.34284775    -0.50100
O63         O  0.28703700  0.40316515  0.28720693    -0.73300
O64         O  0.35678331  0.34929852  0.27933239    -0.80100
O65         O  0.22155659  0.30957637  0.35971035    -0.81900
O66         O  0.36719871  0.32837566  0.22505955    -0.77500
O67         O  0.27398758  0.33762922  0.35491260    -0.89100
O68         O  0.24709249  0.41180118  0.24739827    -0.75100
O69         O  0.28922840  0.35278417  0.23457330    -0.84600
O70         O  0.23380537  0.34759172  0.28565315    -0.84300
O71         O  0.31740236  0.29311009  0.26465762    -0.71000
O72         O  0.26581357  0.28913575  0.31041400    -0.83200
Zr73       Zr  0.22446361  0.25517137  0.21075448     2.26400
Zr74       Zr  0.31220181  0.30443369  0.20466911     2.06300
Zr75       Zr  0.20574924  0.29430790  0.30096235     2.10000
Zr76       Zr  0.22901736  0.35666334  0.22561312     1.78800
O77         O  0.18269201  0.25139558  0.34077429    -0.92000
O78         O  0.25044509  0.39154729  0.17754832    -0.39800
O79         O  0.20101876  0.30361596  0.24073285    -0.76400
O80         O  0.25165412  0.30919827  0.19438295    -0.95100
O81         O  0.28464297  0.25079609  0.22014788    -0.88400
O82         O  0.22807949  0.24535761  0.27089070    -0.91200
C83         C  0.26907968  0.42237538  0.26908044     1.02500
C84         C  0.24795316  0.32499967  0.37270905     1.15500
C85         C  0.37718643  0.34261126  0.25318131     1.06200
O86         O  0.33203699  0.35139581  0.16808867    -0.93400
O87         O  0.30058000  0.28405917  0.14638056    -0.89100
O88         O  0.24796493  0.25613521  0.15049187    -0.82300
C89         C  0.27492606  0.26764169  0.13314557     1.12900
O90         O  0.32503304  0.24205486  0.32953327    -0.95400
Zr91       Zr  0.28821133  0.24094498  0.28015093     1.88900
O92         O  0.23505304  0.19381018  0.21561089    -0.72000
O93         O  0.35796431  0.26745148  0.18475092    -0.51300
O94         O  0.34525852  0.21967685  0.26535708    -0.95900
O95         O  0.26379786  0.20597244  0.32677857    -0.53200
O96         O  0.27698087  0.18594175  0.25354457    -0.72500
C97         C  0.25549106  0.17488578  0.23148814     0.99800
O98         O  0.18296500  0.23265403  0.16979859    -0.61300
O99         O  0.16306276  0.33550553  0.31909843    -0.56100
O100        O  0.16126862  0.25283435  0.22549798    -0.92800
O101        O  0.15044625  0.27303306  0.28004152    -0.91300
O102        O  0.17365100  0.37838244  0.24604084    -0.91600
O103        O  0.18988802  0.35857313  0.17825395    -0.90400
C104        C  0.14058514  0.25993069  0.25143491     1.18700
H105        H  0.22456403  0.36601896  0.29944469     0.34600
H106        H  0.24796576  0.31444266  0.17072364     0.45500
H107        H  0.21494528  0.22504119  0.27741953     0.39000
H108        H  0.34102744  0.28968150  0.27020665     0.35500
H109        H  0.23979978  0.41382147  0.18135931     0.27300
H110        H  0.37533659  0.28268747  0.17289330     0.33200
H111        H  0.34417785  0.21231886  0.24092008     0.39100
H112        H  0.17954312  0.39793743  0.26133621     0.33600
H113        H  0.14975930  0.33911211  0.29836321     0.32400
H114        H  0.15839983  0.25741295  0.34589077     0.34100
H115        H  0.24595744  0.19088554  0.31629263     0.33100
H116        H  0.18137610  0.33477168  0.17500541     0.37100
H117        H  0.18063342  0.25090657  0.15300133     0.29800
H118        H  0.34117455  0.38255662  0.33472496     0.34100
H119        H  0.33181947  0.21833692  0.33226305     0.36900
H120        H  0.14665752  0.32290015  0.33483007     0.29500
H121        H  0.19481320  0.21437974  0.15670106     0.42400
H122        H  0.31825634  0.34906899  0.14723442     0.32400
H123        H  0.27528958  0.39606734  0.18160087     0.40100
H124        H  0.25053923  0.22185728  0.34175619     0.31900
H125        H  0.36907172  0.26095885  0.20601403     0.32000
H126        H  0.34494149  0.34481392  0.34593508     0.32200
C127        C  0.23752828  0.07270356  0.21800052     0.81400
N128        N  0.20394698  0.06769739  0.21029969    -0.76900
C129        C  0.18993591  0.03599325  0.20695702     0.83900
N130        N  0.20947130  0.00887453  0.21075088    -0.76800
C131        C  0.24311470  0.01302869  0.21845092     0.84000
N132        N  0.25758986  0.04519146  0.22216627    -0.78500
Zr133      Zr  0.30369317  0.75892915  0.29290150     2.17500
O134        O  0.34255653  0.71514166  0.30894762    -0.50100
O135        O  0.29466382  0.76050938  0.35568198    -0.73300
O136        O  0.36430096  0.78005972  0.29588804    -0.80100
O137        O  0.23733351  0.68926055  0.26372571    -0.81900
O138        O  0.36975291  0.83458082  0.27783084    -0.77500
O139        O  0.29046310  0.69805160  0.28593826    -0.89100
O140        O  0.25206075  0.79620705  0.37200366    -0.75100
O141        O  0.29333708  0.81632349  0.30919431    -0.84600
O142        O  0.24280254  0.76157597  0.30506908    -0.84300
O143        O  0.32332868  0.79115085  0.24319611    -0.71000
O144        O  0.27652129  0.74154104  0.24056291    -0.83200
Zr145      Zr  0.22462692  0.83643581  0.21959115     2.26400
Zr146      Zr  0.31246605  0.84885977  0.26014211     2.06300
Zr147      Zr  0.21570269  0.74505843  0.25264332     2.10000
Zr148      Zr  0.23232558  0.81938245  0.31982552     1.78800
O149        O  0.19792172  0.70617316  0.20665779    -0.92000
O150        O  0.24722426  0.86653852  0.35867109    -0.39800
O151        O  0.20462041  0.80290307  0.26801325    -0.76400
O152        O  0.25150746  0.85360550  0.27223275    -0.95100
O153        O  0.28524147  0.83296939  0.20740399    -0.88400
O154        O  0.23384045  0.77849791  0.20387761    -0.91200
C155        C  0.27512833  0.77523441  0.37844536     1.02500
C156        C  0.26547892  0.67870694  0.27529225     1.15500
C157        C  0.38217298  0.80760403  0.28952699     1.06200
O158        O  0.32324861  0.88321556  0.31150625    -0.93400
O159        O  0.29613077  0.90475404  0.24256147    -0.89100
O160        O  0.24382434  0.89704347  0.21828785    -0.82300
C161        C  0.26970828  0.91588641  0.22813802     1.12900
O162        O  0.34252316  0.73782426  0.18106819    -0.95400
Zr163      Zr  0.29435426  0.77516758  0.19194524     1.88900
O164        O  0.23120391  0.83465273  0.15658788    -0.72000
O165        O  0.35672414  0.87764005  0.22382168    -0.51300
O166        O  0.34344122  0.80402021  0.16226934    -0.95900
O167        O  0.27976127  0.72390310  0.15869088    -0.53200
O168        O  0.27044585  0.79543954  0.14007476    -0.72500
C169        C  0.24857290  0.81770522  0.13366434     0.99800
O170        O  0.17778957  0.87540911  0.21465243    -0.61300
O171        O  0.17587585  0.71863422  0.29520879    -0.56100
O172        O  0.16445429  0.81484035  0.21632559    -0.92800
O173        O  0.15869603  0.76046514  0.23518441    -0.91300
O174        O  0.17842826  0.79514402  0.34492210    -0.91600
O175        O  0.18900613  0.86236968  0.32787559    -0.90400
C176        C  0.14651433  0.78738076  0.22298605     1.18700
H177        H  0.23520817  0.74647579  0.32339124     0.34600
H178        H  0.24605370  0.87655174  0.27883217     0.45500
H179        H  0.22065238  0.77152819  0.18424045     0.39000
H180        H  0.34742453  0.78812305  0.23716569     0.35500
H181        H  0.23397559  0.86166278  0.38047814     0.27300
H182        H  0.37096719  0.89127227  0.23999460     0.33200
H183        H  0.33384401  0.82417482  0.15190550     0.39100
H184        H  0.18531341  0.77576086  0.35855760     0.33600
H185        H  0.15989979  0.73667763  0.30245350     0.32400
H186        H  0.18122044  0.68987649  0.21796813     0.34100
H187        H  0.25490500  0.72541182  0.15419385     0.33100
H188        H  0.18024213  0.86546259  0.30461382     0.37100
H189        H  0.17997878  0.89193812  0.23403591     0.29800
H190        H  0.35479385  0.72442174  0.32913724     0.34100
H191        H  0.34711292  0.73775167  0.15580282     0.36900
H192        H  0.16157084  0.70221912  0.28181078     0.29500
H193        H  0.18354919  0.88854514  0.19359947     0.42400
H194        H  0.30247568  0.89694893  0.31491940     0.32400
H195        H  0.27161277  0.86332080  0.36412943     0.40100
H196        H  0.28059559  0.70517821  0.17520444     0.31900
H197        H  0.37193705  0.85952688  0.21501019     0.32000
H198        H  0.36048929  0.71408632  0.29006959     0.32200
Zr199      Zr  0.79927248  0.26208462  0.21488311     2.17500
O200        O  0.84083525  0.25280497  0.16706600    -0.50100
O201        O  0.79464075  0.19927365  0.21640659    -0.73300
O202        O  0.85990341  0.26124575  0.23381927    -0.80100
O203        O  0.72872921  0.28407822  0.15137603    -0.81900
O204        O  0.86327216  0.28167176  0.28884815    -0.77500
O205        O  0.78228594  0.26260318  0.15423160    -0.89100
O206        O  0.75331402  0.18304828  0.25660617    -0.75100
O207        O  0.78931414  0.24785852  0.27386058    -0.84600
O208        O  0.73871472  0.24875887  0.22239060    -0.84300
O209        O  0.81573314  0.31283589  0.24704836    -0.71000
O210        O  0.76974373  0.31262816  0.20124400    -0.83200
Zr211      Zr  0.71525154  0.33431227  0.30275499     2.26400
Zr212      Zr  0.80515535  0.29809185  0.30634899     2.06300
Zr213      Zr  0.70925867  0.29925896  0.20981259     2.10000
Zr214      Zr  0.72899857  0.23457853  0.28129341     1.78800
O215        O  0.69251976  0.34447492  0.17275485    -0.92000
O216        O  0.74884870  0.20328726  0.32970826    -0.39800
O217        O  0.69911670  0.28470481  0.26888602    -0.76400
O218        O  0.74474195  0.28327430  0.31574074    -0.95100
O219        O  0.77526793  0.34827585  0.29417616    -0.88400
O220        O  0.72416613  0.34902232  0.24353378    -0.91200
C221        C  0.77661647  0.17643754  0.23330297     1.02500
C222        C  0.75599551  0.27125216  0.13745968     1.15500
C223        C  0.87694945  0.26949170  0.26087299     1.06200
O224        O  0.82570925  0.25799804  0.34698911    -0.93400
O225        O  0.78769766  0.31408920  0.36481935    -0.89100
O226        O  0.73347778  0.33429994  0.36327564    -0.82300
C227        C  0.76045200  0.32622855  0.37934415     1.12900
O228        O  0.83165626  0.37832899  0.19450974    -0.95400
Zr229      Zr  0.78442925  0.36225777  0.23512918     1.88900
O230        O  0.72201951  0.39740985  0.30259860    -0.72000
O231        O  0.84300596  0.34533078  0.32395020    -0.51300
O232        O  0.83317754  0.39270400  0.26091009    -0.95900
O233        O  0.76542132  0.39038448  0.18432440    -0.53200
O234        O  0.76108485  0.41371573  0.26025840    -0.72500
C235        C  0.73957801  0.42030346  0.28517219     0.99800
O236        O  0.66756272  0.34241316  0.34495026    -0.61300
O237        O  0.66583101  0.25956020  0.18695932    -0.56100
O238        O  0.65449439  0.33196886  0.28552490    -0.92800
O239        O  0.65094697  0.31025427  0.23096633    -0.91300
O240        O  0.67860819  0.20389371  0.25891602    -0.91600
O241        O  0.68177819  0.22612369  0.32410834    -0.90400
C242        C  0.63739430  0.32217957  0.25905376     1.18700
H243        H  0.73178237  0.23015635  0.20736069     0.34600
H244        H  0.73968513  0.27642664  0.33914734     0.45500
H245        H  0.71020069  0.36777256  0.23790792     0.39000
H246        H  0.83969161  0.31937973  0.24239682     0.35500
H247        H  0.73633337  0.18095834  0.32848018     0.27300
H248        H  0.85687534  0.33598587  0.34212151     0.33200
H249        H  0.82368315  0.40263559  0.28274240     0.39100
H250        H  0.68795799  0.18673219  0.24248099     0.33600
H251        H  0.65865414  0.27012075  0.16561362     0.32400
H252        H  0.66691399  0.34347269  0.17380285     0.34100
H253        H  0.74249368  0.39918006  0.19115266     0.33100
H254        H  0.67325164  0.24915872  0.32901382     0.37100
H255        H  0.66739886  0.32261921  0.36026175     0.29800
H256        H  0.85328642  0.23238465  0.17300570     0.34100
H257        H  0.83130750  0.40336676  0.19306871     0.36900
H258        H  0.67862286  0.23947285  0.17886787     0.29500
H259        H  0.67465744  0.36213708  0.35952863     0.42400
H260        H  0.80445607  0.24740058  0.35778730     0.32400
H261        H  0.77317707  0.19829256  0.32332771     0.40100
H262        H  0.76043725  0.37177029  0.16758192     0.31900
H263        H  0.85964755  0.34875704  0.30420090     0.32000
H264        H  0.85818591  0.27183880  0.16840136     0.32200
Zr265      Zr  0.71954300  0.75562919  0.28800292     2.17500
O266        O  0.66961265  0.71611384  0.29397952    -0.50100
O267        O  0.71956850  0.75753208  0.35169385    -0.73300
O268        O  0.73568952  0.69552935  0.28632178    -0.80100
O269        O  0.65913974  0.82914426  0.27379197    -0.81900
O270        O  0.78893739  0.69025789  0.26002338    -0.77500
O271        O  0.65969744  0.77399687  0.28992115    -0.89100
O272        O  0.76459590  0.79158610  0.36874086    -0.75100
O273        O  0.77964409  0.75934868  0.29930154    -0.84600
O274        O  0.73119381  0.81289875  0.30616471    -0.84300
O275        O  0.74926921  0.74260471  0.23381989    -0.71000
O276        O  0.70610775  0.79094136  0.24070596    -0.83200
Zr277      Zr  0.80982623  0.84020168  0.21738388     2.26400
Zr278      Zr  0.80986480  0.74760624  0.24523007     2.06300
Zr279      Zr  0.71842877  0.84810826  0.25913463     2.10000
Zr280      Zr  0.79110700  0.81662801  0.31733277     1.78800
O281        O  0.67946065  0.87363884  0.22033161    -0.92000
O282        O  0.83969338  0.78950729  0.34202954    -0.39800
O283        O  0.77872036  0.85278391  0.27085688    -0.76400
O284        O  0.82308625  0.80479059  0.26483239    -0.95100
O285        O  0.79745665  0.78342055  0.19848566    -0.88400
O286        O  0.74959831  0.83642200  0.20576603    -0.91200
C287        C  0.73812025  0.77196055  0.37502608     1.02500
C288        C  0.64408646  0.80136016  0.28391346     1.15500
C289        C  0.76108745  0.67775735  0.27473153     1.06200
O290        O  0.85216908  0.72249086  0.28058647    -0.93400
O291        O  0.86908734  0.76368916  0.22602975    -0.89100
O292        O  0.86942772  0.81959915  0.21227646    -0.82300
C293        C  0.88459944  0.79144100  0.21618915     1.12900
O294        O  0.68680541  0.74390606  0.17314108    -0.95400
Zr295      Zr  0.73745160  0.77929558  0.18758486     1.88900
O296        O  0.80995319  0.83811041  0.15347571    -0.72000
O297        O  0.82111744  0.71093818  0.19519892    -0.51300
O298        O  0.75558830  0.72830023  0.15652794    -0.95900
O299        O  0.69372021  0.80771422  0.15649251    -0.53200
O300        O  0.76831414  0.79999575  0.13622638    -0.72500
C301        C  0.79360136  0.82114432  0.13002974     0.99800
O302        O  0.85347136  0.88643827  0.21179190    -0.61300
O303        O  0.70011969  0.88495867  0.30710828    -0.56100
O304        O  0.79556520  0.90051452  0.22479744    -0.92800
O305        O  0.74048305  0.90520395  0.24686447    -0.91300
O306        O  0.77130713  0.86203589  0.35564224    -0.91600
O307        O  0.83510946  0.85963584  0.33217898    -0.90400
C308        C  0.76949849  0.91797766  0.23527028     1.18700
H309        H  0.71719783  0.81885011  0.32632786     0.34600
H310        H  0.84698479  0.80768070  0.27068755     0.45500
H311        H  0.74425889  0.85238459  0.18840034     0.39000
H312        H  0.74290538  0.71989447  0.22613020     0.35500
H313        H  0.84078220  0.79905245  0.36572646     0.27300
H314        H  0.82855158  0.72651605  0.17641275     0.33200
H315        H  0.74888243  0.73127250  0.13250325     0.39100
H316        H  0.76286281  0.87919119  0.34008401     0.33600
H317        H  0.68579918  0.90195475  0.29662313     0.32400
H318        H  0.66164851  0.88427186  0.23557205     0.34100
H319        H  0.70613634  0.82689431  0.14473501     0.33100
H320        H  0.83626595  0.87532675  0.31255466     0.37100
H321        H  0.86844458  0.88434257  0.23164047     0.29800
H322        H  0.67413216  0.70158561  0.31366374     0.34100
H323        H  0.68836168  0.74050461  0.14781468     0.36900
H324        H  0.68342572  0.87104323  0.32132554     0.29500
H325        H  0.86828726  0.88076141  0.19126683     0.42400
H326        H  0.86291509  0.74190148  0.29326137     0.32400
H327        H  0.83165323  0.76560526  0.34526285     0.40100
H328        H  0.67902485  0.81854952  0.17468864     0.31900
H329        H  0.84233440  0.69917931  0.20052358     0.32000
H330        H  0.67086498  0.70089951  0.27341949     0.32200
C331        C  0.24801541  0.26331705  0.03481349     0.81400
N332        N  0.21328436  0.26026509  0.03942310    -0.76900
C333        C  0.19256654  0.26000149  0.01237955     0.83900
N334        N  0.20657559  0.26241111  0.97995477    -0.76800
C335        C  0.24145083  0.26568317  0.97459880     0.84000
N336        N  0.26249995  0.26603501  0.00217291    -0.78500
Zr337      Zr  0.22803682  0.25771924  0.79055819     2.17500
O338        O  0.18791998  0.23229632  0.83375077    -0.50100
O339        O  0.23715545  0.19635305  0.78163110    -0.73300
O340        O  0.16726936  0.25574037  0.77279161    -0.80100
O341        O  0.29352972  0.28757701  0.85964888    -0.81900
O342        O  0.16400952  0.27790834  0.71934409    -0.77500
O343        O  0.24098634  0.26102450  0.85232600    -0.89100
O344        O  0.27736743  0.18724611  0.73860054    -0.75100
O345        O  0.23937222  0.24838227  0.73034117    -0.84600
O346        O  0.28895536  0.25113333  0.78335815    -0.84300
O347        O  0.21053234  0.30866641  0.76332824    -0.71000
O348        O  0.25550364  0.30965529  0.81114390    -0.83200
Zr349      Zr  0.31022671  0.34424741  0.71397359     2.26400
Zr350      Zr  0.22235382  0.29874797  0.70269838     2.06300
Zr351      Zr  0.31634058  0.30321321  0.80267599     2.10000
Zr352      Zr  0.30046498  0.24268497  0.72326407     1.78800
O353        O  0.33694744  0.34747724  0.84218748    -0.92000
O354        O  0.28927899  0.21316455  0.66894103    -0.39800
O355        O  0.32797137  0.29447631  0.74241221    -0.76400
O356        O  0.28336835  0.29150159  0.69404820    -0.95100
O357        O  0.24956176  0.35096745  0.72236715    -0.88400
O358        O  0.29998601  0.35345642  0.77447500    -0.91200
C359        C  0.25525770  0.17679771  0.76160447     1.02500
C360        C  0.26558737  0.27254770  0.87125853     1.15500
C361        C  0.15025832  0.26440971  0.74667562     1.06200
O362        O  0.20983689  0.25459885  0.65979564    -0.93400
O363        O  0.24172681  0.31836707  0.64573700    -0.89100
O364        O  0.29478861  0.34407203  0.65234640    -0.82300
C365        C  0.26951244  0.33343854  0.63371226     1.12900
O366        O  0.19320169  0.36217600  0.82739493    -0.95400
Zr367      Zr  0.23934294  0.35957286  0.78287093     1.88900
O368        O  0.30238912  0.40570853  0.72344875    -0.72000
O369        O  0.18277778  0.33992569  0.68264045    -0.51300
O370        O  0.18961613  0.38949078  0.76435765    -0.95900
O371        O  0.26007743  0.38814257  0.83472966    -0.53200
O372        O  0.25842857  0.41464525  0.76271343    -0.72500
C373        C  0.28219981  0.42512370  0.74138485     0.99800
O374        O  0.35559367  0.36975100  0.67627625    -0.61300
O375        O  0.35384110  0.26100296  0.82432931    -0.56100
O376        O  0.37127753  0.34162205  0.72994774    -0.92800
O377        O  0.37488264  0.31905847  0.78317048    -0.91300
O378        O  0.34822607  0.21295567  0.74610331    -0.91600
O379        O  0.35150104  0.24378715  0.68451132    -0.90400
C380        C  0.38846545  0.33210643  0.75563933     1.18700
H381        H  0.29621459  0.23225443  0.79638050     0.34600
H382        H  0.28971132  0.28620435  0.67033979     0.45500
H383        H  0.31317220  0.37313662  0.78252593     0.39000
H384        H  0.18664253  0.31343048  0.76847446     0.35500
H385        H  0.30319208  0.19262136  0.66925115     0.27300
H386        H  0.17097634  0.32819381  0.66340627     0.33200
H387        H  0.17230346  0.37151505  0.75822737     0.39100
H388        H  0.34486752  0.18907611  0.73820810     0.33600
H389        H  0.36866731  0.25422655  0.80418691     0.32400
H390        H  0.35102917  0.33554497  0.85848520     0.34100
H391        H  0.28063992  0.40214618  0.82712616     0.33100
H392        H  0.36034841  0.26767509  0.68520081     0.37100
H393        H  0.36073070  0.35235213  0.65825244     0.29800
H394        H  0.17616313  0.21287820  0.82195474     0.34100
H395        H  0.19116003  0.38659036  0.83326123     0.36900
H396        H  0.36965180  0.27395438  0.83955852     0.29500
H397        H  0.34456336  0.38807905  0.66415259     0.42400
H398        H  0.20024620  0.23502157  0.67310996     0.32400
H399        H  0.26501220  0.20443943  0.67147201     0.40100
H400        H  0.26943604  0.36989810  0.84834191     0.31900
H401        H  0.16462378  0.34181646  0.70119294     0.32000
H402        H  0.16973671  0.24897891  0.83835152     0.32200
Zr403      Zr  0.22043710  0.83586792  0.79635510     2.17500
O404        O  0.17025143  0.85018451  0.83305339    -0.50100
O405        O  0.22580232  0.89872135  0.79710758    -0.73300
O406        O  0.23319006  0.83425139  0.85761222    -0.80100
O407        O  0.16013305  0.81226385  0.72105094    -0.81900
O408        O  0.28659159  0.81334372  0.86375952    -0.77500
O409        O  0.16061478  0.82815827  0.77762104    -0.89100
O410        O  0.27048120  0.91585611  0.76106454    -0.75100
O411        O  0.28106234  0.84933743  0.79348505    -0.84600
O412        O  0.23381160  0.85302773  0.73868784    -0.84300
O413        O  0.24805598  0.78430644  0.81099003    -0.71000
O414        O  0.20603843  0.78738532  0.76064361    -0.83200
Zr415      Zr  0.30863885  0.76609703  0.71397553     2.26400
Zr416      Zr  0.30907270  0.79822557  0.80672072     2.06300
Zr417      Zr  0.22010082  0.80447151  0.70311198     2.10000
Zr418      Zr  0.29460656  0.86523211  0.73555003     1.78800
O419        O  0.18024883  0.76704903  0.67209350    -0.92000
O420        O  0.34196269  0.89679747  0.76253976    -0.39800
O421        O  0.28096639  0.81725405  0.69920211    -0.76400
O422        O  0.32367955  0.81520575  0.74892750    -0.95100
O423        O  0.29506992  0.74932071  0.77152884    -0.88400
O424        O  0.24785411  0.75319214  0.71643646    -0.91200
C425        C  0.24569800  0.92185668  0.78279875     1.02500
C426        C  0.14494394  0.82040511  0.74976898     1.15500
C427        C  0.25836449  0.82569028  0.87578427     1.06200
O428        O  0.34942500  0.84015965  0.83100739    -0.93400
O429        O  0.36801507  0.78274705  0.79167362    -0.89100
O430        O  0.36709409  0.76360445  0.73609349    -0.82300
C431        C  0.38271188  0.77106052  0.76399666     1.12900
O432        O  0.18483414  0.72657911  0.81392789    -0.95400
Zr433      Zr  0.23440525  0.73676189  0.77419941     1.88900
O434        O  0.30284950  0.70353131  0.71155424    -0.72000
O435        O  0.32401115  0.75308940  0.84463384    -0.51300
O436        O  0.25021089  0.70555737  0.82431382    -0.95900
O437        O  0.18715481  0.70472178  0.74737962    -0.53200
O438        O  0.26013324  0.68617817  0.74975800    -0.72500
C439        C  0.28409154  0.68032080  0.72700120     0.99800
O440        O  0.35390688  0.75836702  0.66920806    -0.61300
O441        O  0.20627496  0.85296501  0.66879559    -0.56100
O442        O  0.29765009  0.76957187  0.65295696    -0.92800
O443        O  0.24431548  0.79047585  0.64663438    -0.91300
O444        O  0.28079455  0.89738445  0.68546972    -0.91600
O445        O  0.34499743  0.87613397  0.69721953    -0.90400
C446        C  0.27270484  0.77844994  0.63478437     1.18700
H447        H  0.22076618  0.87230232  0.73272285     0.34600
H448        H  0.34785383  0.82165520  0.74606285     0.45500
H449        H  0.24182129  0.73526362  0.70017683     0.39000
H450        H  0.24090930  0.77685040  0.83375463     0.35500
H451        H  0.34090819  0.92020727  0.75398672     0.27300
H452        H  0.33718317  0.76476620  0.86299447     0.33200
H453        H  0.27242899  0.69526370  0.81742491     0.39100
H454        H  0.28138649  0.88069174  0.66610084     0.33600
H455        H  0.20218249  0.84339785  0.64551200     0.32400
H456        H  0.17173143  0.78123299  0.65372788     0.34100
H457        H  0.19800842  0.69184769  0.72794137     0.33100
H458        H  0.35183233  0.85337768  0.68885813     0.37100
H459        H  0.37139974  0.77696762  0.67270443     0.29800
H460        H  0.17803232  0.86965233  0.84762343     0.34100
H461        H  0.18178839  0.70159323  0.81535138     0.36900
H462        H  0.18316229  0.85974205  0.67765245     0.29500
H463        H  0.36541154  0.73733026  0.67496227     0.42400
H464        H  0.36316653  0.84917535  0.81093758     0.32400
H465        H  0.33463405  0.89868193  0.78718669     0.40100
H466        H  0.17385166  0.72210278  0.73623826     0.31900
H467        H  0.30182935  0.74567838  0.85621106     0.32000
H468        H  0.16643760  0.83106052  0.84907438     0.32200
Zr469      Zr  0.80417234  0.25367617  0.79380539     2.17500
O470        O  0.84373430  0.22490811  0.82973123    -0.50100
O471        O  0.79420167  0.19261473  0.78058088    -0.73300
O472        O  0.78360719  0.25131219  0.85559697    -0.80100
O473        O  0.87652057  0.28329969  0.72550353    -0.81900
O474        O  0.72978064  0.27254408  0.86201102    -0.77500
O475        O  0.86695235  0.25976666  0.77832385    -0.89100
O476        O  0.75603795  0.18350914  0.73821204    -0.75100
O477        O  0.74416856  0.24430225  0.78397661    -0.84600
O478        O  0.79918547  0.24772092  0.73269407    -0.84300
O479        O  0.77722022  0.30429904  0.81627832    -0.71000
O480        O  0.82686157  0.30567100  0.76854337    -0.83200
Zr481      Zr  0.73234241  0.34007809  0.72094800     2.26400
Zr482      Zr  0.71685881  0.29425350  0.80624796     2.06300
Zr483      Zr  0.82062013  0.30004884  0.70778102     2.10000
Zr484      Zr  0.73909952  0.23907559  0.72302592     1.78800
O485        O  0.86065217  0.34708722  0.69266439    -0.92000
O486        O  0.68520160  0.20844903  0.73908979    -0.39800
O487        O  0.76050513  0.29080873  0.69776980    -0.76400
O488        O  0.70999064  0.28739509  0.74532240    -0.95100
O489        O  0.73856871  0.34645643  0.78146758    -0.88400
O490        O  0.79264943  0.34974215  0.72925575    -0.91200
C491        C  0.77673030  0.17314914  0.76009560     1.02500
C492        C  0.88698078  0.27015736  0.75288940     1.15500
C493        C  0.75634114  0.25928097  0.87400219     1.06200
O494        O  0.67479555  0.24883749  0.82120072    -0.93400
O495        O  0.66123663  0.31551469  0.79215872    -0.89100
O496        O  0.67057580  0.34053091  0.74008175    -0.82300
C497        C  0.65081999  0.33060415  0.76578611     1.12900
O498        O  0.84425431  0.35424353  0.83133379    -0.95400
Zr499      Zr  0.79891806  0.35531274  0.78979131     1.88900
O500        O  0.74185007  0.40122805  0.73325379    -0.72000
O501        O  0.69733386  0.33568848  0.84936817    -0.51300
O502        O  0.78027033  0.38103806  0.84461935    -0.95900
O503        O  0.85104782  0.38750561  0.77083034    -0.53200
O504        O  0.77889936  0.41057256  0.77658449    -0.72500
C505        C  0.75857879  0.42079961  0.75422658     0.99800
O506        O  0.69594743  0.36336977  0.67813574    -0.61300
O507        O  0.84536136  0.26167499  0.66426123    -0.56100
O508        O  0.75097319  0.33969200  0.65930677    -0.92800
O509        O  0.80476633  0.31862055  0.65178673    -0.91300
O510        O  0.76056360  0.21225416  0.66976062    -0.91600
O511        O  0.69692733  0.23943614  0.67819754    -0.90400
C512        C  0.77765841  0.33138553  0.64040705     1.18700
H513        H  0.81236145  0.22904463  0.72346973     0.34600
H514        H  0.68622592  0.28234388  0.74005993     0.45500
H515        H  0.80133867  0.36969798  0.71724311     0.39000
H516        H  0.78137723  0.30888485  0.84022208     0.35500
H517        H  0.68596340  0.18685762  0.72568244     0.27300
H518        H  0.68138368  0.32270480  0.86522462     0.33200
H519        H  0.79056055  0.40441106  0.84430152     0.39100
H520        H  0.76848667  0.23137204  0.65493637     0.33600
H521        H  0.82648199  0.25598803  0.64850036     0.32400
H522        H  0.87846151  0.33692712  0.67708297     0.34100
H523        H  0.84399062  0.40188302  0.75195326     0.33100
H524        H  0.70049825  0.26196246  0.66753139     0.37100
H525        H  0.67783049  0.34557352  0.67376061     0.29800
H526        H  0.82976777  0.20630404  0.84087061     0.34100
H527        H  0.84934428  0.37824677  0.83789204     0.36900
H528        H  0.86200754  0.27609469  0.65049716     0.29500
H529        H  0.68363338  0.38206579  0.69004943     0.42400
H530        H  0.65904995  0.24738923  0.80175640     0.32400
H531        H  0.68794635  0.20174692  0.76320186     0.40100
H532        H  0.86597190  0.37048968  0.75935008     0.31900
H533        H  0.71789490  0.34131524  0.86298912     0.32000
H534        H  0.84920970  0.24114164  0.84867219     0.32200
Zr535      Zr  0.79902844  0.83990206  0.79388958     2.17500
O536        O  0.81049804  0.88658307  0.83446623    -0.50100
O537        O  0.86290703  0.84196356  0.78828970    -0.73300
O538        O  0.79912470  0.82171739  0.85436463    -0.80100
O539        O  0.77555718  0.90148833  0.72267766    -0.81900
O540        O  0.77776702  0.76747670  0.86027523    -0.77500
O541        O  0.79492271  0.89945815  0.77714442    -0.89100
O542        O  0.88038932  0.80140476  0.74980493    -0.75100
O543        O  0.81378425  0.78193663  0.78730426    -0.84600
O544        O  0.81437008  0.83183923  0.73425054    -0.84300
O545        O  0.74718016  0.80729238  0.81091119    -0.71000
O546        O  0.74865850  0.85279480  0.76276813    -0.83200
Zr547      Zr  0.72703813  0.75191332  0.71333966     2.26400
Zr548      Zr  0.76216756  0.74888652  0.80301369     2.06300
Zr549      Zr  0.76393915  0.84315437  0.70320170     2.10000
Zr550      Zr  0.82854178  0.77389649  0.72768602     1.78800
O551        O  0.72078709  0.87731184  0.67793971    -0.92000
O552        O  0.85748267  0.72602369  0.75090042    -0.39800
O553        O  0.77827848  0.78492993  0.69639202    -0.76400
O554        O  0.77837577  0.73950865  0.74337153    -0.95100
O555        O  0.71157766  0.76085987  0.77267816    -0.88400
O556        O  0.71243376  0.81011754  0.71906313    -0.91200
C557        C  0.88649642  0.82597961  0.77096063     1.02500
C558        C  0.78637823  0.91564569  0.75047569     1.15500
C559        C  0.79033731  0.79548164  0.87245302     1.06200
O560        O  0.80438341  0.71045911  0.82310534    -0.93400
O561        O  0.74635117  0.69074289  0.78573531    -0.89100
O562        O  0.72772402  0.69242224  0.73106091    -0.82300
C563        C  0.73520651  0.67645430  0.75816101     1.12900
O564        O  0.68727199  0.86204993  0.82347682    -0.95400
Zr565      Zr  0.69792008  0.81922384  0.77860380     1.88900
O566        O  0.66327751  0.74980177  0.72127144    -0.72000
O567        O  0.71666845  0.72958265  0.84400123    -0.51300
O568        O  0.66082500  0.80197434  0.82772407    -0.95900
O569        O  0.66699711  0.86453987  0.75297878    -0.53200
O570        O  0.64607989  0.78911827  0.76118399    -0.72500
C571        C  0.63993921  0.76465542  0.74005072     0.99800
O572        O  0.71197818  0.71153653  0.66744333    -0.61300
O573        O  0.81074213  0.86570510  0.66540820    -0.56100
O574        O  0.73336648  0.76590556  0.65195164    -0.92800
O575        O  0.75290192  0.82073982  0.64585362    -0.91300
O576        O  0.86077352  0.79500713  0.67686426    -0.91600
O577        O  0.84251315  0.73253283  0.68236115    -0.90400
C578        C  0.74262724  0.79183707  0.63363240     1.18700
H579        H  0.83352007  0.84687674  0.72702261     0.34600
H580        H  0.78557073  0.71665127  0.73888646     0.45500
H581        H  0.69362802  0.81492621  0.70455221     0.39000
H582        H  0.74005845  0.81214203  0.83449658     0.35500
H583        H  0.88122370  0.72743574  0.74042247     0.27300
H584        H  0.72789422  0.71331037  0.85863133     0.33200
H585        H  0.66463874  0.77747589  0.83004982     0.39100
H586        H  0.88543055  0.79249151  0.68173424     0.33600
H587        H  0.81610923  0.84702345  0.64888812     0.32400
H588        H  0.73391618  0.89113089  0.66049027     0.34100
H589        H  0.65497597  0.85382386  0.73333717     0.33100
H590        H  0.82023135  0.72721299  0.67147095     0.37100
H591        H  0.73077500  0.69516633  0.66578645     0.29800
H592        H  0.83109348  0.88029510  0.84684306     0.34100
H593        H  0.66391980  0.87026827  0.81962276     0.36900
H594        H  0.79992176  0.88285450  0.65150228     0.29500
H595        H  0.69136967  0.69835002  0.67639402     0.42400
H596        H  0.79306594  0.69991029  0.84377516     0.32400
H597        H  0.86043643  0.73201750  0.77548747     0.40100
H598        H  0.68528639  0.87959010  0.74229387     0.31900
H599        H  0.71226902  0.74938645  0.85940028     0.32000
H600        H  0.79112635  0.88565502  0.85191757     0.32200
C601        C  0.53841439  0.73001684  0.74208478     0.81400
N602        N  0.51193329  0.75057995  0.75190999    -0.76900
C603        C  0.47878450  0.73744689  0.75367924     0.83900
N604        N  0.47235200  0.70458349  0.74520417    -0.76800
C605        C  0.49820342  0.68425434  0.73523187     0.84000
N606        N  0.53133704  0.69693411  0.73331116    -0.78500
C607        C  0.28405246  0.52072973  0.70800814     0.81400
N608        N  0.28642560  0.55326600  0.72076125    -0.76900
C609        C  0.28823982  0.57979267  0.69837347     0.83900
N610        N  0.28869234  0.57340536  0.66379485    -0.76800
C611        C  0.28584367  0.54095560  0.65167874     0.84000
N612        N  0.28369797  0.51512499  0.67379707    -0.78500
C613        C  0.55237784  0.33128292  0.73661170     0.81400
N614        N  0.55534546  0.32908916  0.70177951    -0.76900
C615        C  0.52682044  0.32754132  0.68287174     0.83900
N616        N  0.49518752  0.32914109  0.69858338    -0.76800
C617        C  0.49159840  0.33146802  0.73326865     0.84000
N618        N  0.52031771  0.33270044  0.75268946    -0.78500
C619        C  0.72356639  0.51527629  0.75022413     0.81400
N620        N  0.69024252  0.50959956  0.74193120    -0.76900
C621        C  0.66917505  0.53572209  0.73880592     0.83900
N622        N  0.68150902  0.56798026  0.74336790    -0.76800
C623        C  0.71481139  0.57425350  0.75178494     0.84000
N624        N  0.73622950  0.54779754  0.75514876    -0.78500
C625        C  0.54073763  0.35457091  0.26454191     0.81400
N626        N  0.54732474  0.38654934  0.27574017    -0.76900
C627        C  0.52178101  0.40845858  0.28070206     0.83900
N628        N  0.48860699  0.39833678  0.27504386    -0.76800
C629        C  0.48121214  0.36620729  0.26339707     0.84000
N630        N  0.50744902  0.34392548  0.25830784    -0.78500
C631        C  0.73660060  0.52181675  0.31416066     0.81400
N632        N  0.74536136  0.54860911  0.29297078    -0.76900
C633        C  0.74526359  0.58116799  0.30616147     0.83900
N634        N  0.73634055  0.58649306  0.33966803    -0.76800
C635        C  0.72787278  0.56038585  0.36055624     0.84000
N636        N  0.72769690  0.52805617  0.34788455    -0.78500
C637        C  0.54246588  0.79386361  0.31348768     0.81400
N638        N  0.54086186  0.77820491  0.34424111    -0.76900
C639        C  0.51008762  0.77242615  0.36117475     0.83900
N640        N  0.48060408  0.78173188  0.34720482    -0.76800
C641        C  0.48159364  0.79731213  0.31643436     0.84000
N642        N  0.51268879  0.80338358  0.29919640    -0.78500
C643        C  0.29745148  0.52211913  0.27746820     0.81400
N644        N  0.27973534  0.55093032  0.27311622    -0.76900
C645        C  0.29610471  0.58188637  0.27789613     0.83900
N646        N  0.32953156  0.58371610  0.28701361    -0.76800
C647        C  0.34689797  0.55507999  0.29100623     0.84000
N648        N  0.33077960  0.52444262  0.28662110    -0.78500
C649        C  0.70657461  0.76660945  0.47726395     0.81400
N650        N  0.67343114  0.75528459  0.48441232    -0.76900
C651        C  0.66061628  0.75505931  0.51746231     0.83900
N652        N  0.68091878  0.76529343  0.54324646    -0.76800
C653        C  0.71386402  0.77635234  0.53684311     0.84000
N654        N  0.72709090  0.77712427  0.50366482    -0.78500
C655        C  0.76415018  0.35512715  0.48010533     0.81400
N656        N  0.77217107  0.33919416  0.50963178    -0.76900
C657        C  0.77137172  0.35705117  0.54027910     0.83900
N658        N  0.76217762  0.38973424  0.54110392    -0.76800
C659        C  0.75442265  0.40522360  0.51199970     0.84000
N660        N  0.75487498  0.38785029  0.48173384    -0.78500
C661        C  0.28003393  0.74248575  0.47626641     0.81400
N662        N  0.27802459  0.76127541  0.50598311    -0.76900
C663        C  0.27818355  0.74539732  0.53672763     0.83900
N664        N  0.28065600  0.71129366  0.53767202    -0.76800
C665        C  0.28260087  0.69275167  0.50811499     0.84000
N666        N  0.28267488  0.70838252  0.47745072    -0.78500
C667        C  0.28012541  0.33142566  0.46927973     0.81400
N668        N  0.31455755  0.33440889  0.46231542    -0.76900
C669        C  0.33703484  0.33704162  0.48788997     0.83900
N670        N  0.32510831  0.33734260  0.52121704    -0.76800
C671        C  0.29053963  0.33453773  0.52900232     0.84000
N672        N  0.26774992  0.33159428  0.50285426    -0.78500
O673        O  0.95722393  0.98007954  0.94372942    -0.85300
O674        O  0.12757137  0.04201342  0.01524147    -0.85400
O675        O  0.06625197  0.99782770  0.91027485    -0.87100
O676        O  0.04371403  0.95361778  0.01078439    -0.85900
O677        O  0.01111097  0.97108657  0.05823154    -0.85500
O678        O  0.06392423  0.05081416  0.88689697    -0.86800
O679        O  0.10961527  0.99543956  0.98318916    -0.85300
O680        O  0.01073504  0.95712000  0.94672315    -0.84900
Zr681      Zr  0.04865032  0.00055995  0.97114376     2.84300
O682        O  0.05415477  0.02546037  0.02568371    -1.06900
O683        O  0.01561141  0.03461313  0.93813750    -1.07600
C684        C  0.97818838  0.95537146  0.94115899     1.07800
C685        C  0.13224973  0.01327885  0.99994828     1.07800
C686        C  0.06843967  0.01860434  0.88496643     1.10800
C687        C  0.02811793  0.94888528  0.04032462     1.08500
H688        H  0.09764895  0.05108647  0.95372040     0.34100
O689        O  0.07533649  0.05413365  0.96515975    -1.27800
H690        H  0.98207012  0.98345355  0.00185747     0.33800
O691        O  0.99370262  0.00521661  0.99815737    -1.29500
O692        O  0.08445867  0.13818952  0.03998148    -0.85300
O693        O  0.91266823  0.07544544  0.97129227    -0.86800
O694        O  0.10257300  0.10935469  0.92930529    -0.85300
O695        O  0.03919264  0.03109760  0.09793380    -0.85400
O696        O  0.93883284  0.01227870  0.05589258    -0.85100
O697        O  0.00324774  0.08315161  0.88467972    -0.84900
O698        O  0.99800681  0.16649196  0.97579635    -0.85300
O699        O  0.97059585  0.12080831  0.07325438    -0.84800
O700        O  0.03084772  0.14900365  0.92849379    -0.85800
O701        O  0.97350761  0.06740169  0.09554724    -0.85000
O702        O  0.12423835  0.10584806  0.98330940    -0.85400
O703        O  0.95609462  0.05040320  0.90362511    -0.85100
O704        O  0.91526022  0.01665318  0.00292441    -0.84700
O705        O  0.08668952  0.06353547  0.07947500    -0.85200
O706        O  0.03170707  0.16222740  0.03560741    -0.85400
O707        O  0.93028064  0.12107612  0.00486589    -0.86800
Zr708      Zr  0.07990886  0.07952156  0.01997729     2.83100
Zr709      Zr  0.96102101  0.03895286  0.96425147     2.83500
Zr710      Zr  0.04203762  0.08858728  0.93225176     2.84100
Zr711      Zr  0.99935369  0.03086685  0.05192673     2.83400
Zr712      Zr  0.99220448  0.11833887  0.01354356     2.84200
O713        O  0.96642338  0.06438634  0.01847108    -1.07400
O714        O  0.04683959  0.11323660  0.98673300    -1.06900
C715        C  0.06425409  0.16345252  0.04142236     1.07800
C716        C  0.90737284  0.10273881  0.98900296     1.10400
C717        C  0.12698290  0.11226801  0.95104848     1.08000
C718        C  0.06928571  0.04518581  0.10173019     1.08300
C719        C  0.91340601  0.01100015  0.03547429     1.07900
C720        C  0.97419640  0.06685137  0.88043276     1.07500
C721        C  0.01435533  0.17142806  0.94670208     1.07900
C722        C  0.96704004  0.09912083  0.09771423     1.07400
H723        H  0.97254437  0.10747661  0.94459583     0.34100
O724        O  0.98656243  0.09370524  0.95834185    -1.28500
H725        H  0.02970123  0.09577753  0.06951009     0.34100
O726        O  0.02602935  0.08513686  0.04730743    -1.29800
O727        O  0.45681950  0.59765703  0.59473974    -0.85300
O728        O  0.53068571  0.43021210  0.53319612    -0.85400
O729        O  0.42224278  0.49102139  0.57587130    -0.87100
O730        O  0.52323081  0.51142803  0.62235246    -0.85900
O731        O  0.57170997  0.54250488  0.60373331    -0.85500
O732        O  0.40185551  0.49213915  0.52111341    -0.86800
O733        O  0.49813214  0.44767018  0.58077908    -0.85300
O734        O  0.45971636  0.54500082  0.61878897    -0.84900
Zr735      Zr  0.48430123  0.50732920  0.57466607     2.84300
O736        O  0.53981932  0.50221292  0.54906182    -1.06900
O737        O  0.45234425  0.54029698  0.53946035    -1.07600
C738        C  0.45427292  0.57707113  0.62023628     1.07800
C739        C  0.51560502  0.42567707  0.56288801     1.07800
C740        C  0.39802773  0.48861727  0.55382191     1.10800
C741        C  0.55327978  0.52579390  0.62658105     1.08500
H742        H  0.46851108  0.45976269  0.52361180     0.34100
O743        O  0.48009239  0.48160883  0.52034283    -1.27800
H744        H  0.51500570  0.57245743  0.59137192     0.33800
O745        O  0.51155497  0.56136319  0.56937694    -1.29500
O746        O  0.55683566  0.47461828  0.43430194    -0.85300
O747        O  0.48518334  0.64160363  0.49590893    -0.86800
O748        O  0.44534302  0.45627176  0.46402778    -0.85300
O749        O  0.61410797  0.51969552  0.53795619    -0.85400
O750        O  0.56995604  0.61603751  0.56112010    -0.85100
O751        O  0.40003401  0.55257119  0.48943252    -0.84900
O752        O  0.49223759  0.56080909  0.40691431    -0.85300
O753        O  0.58930536  0.58706541  0.45329101    -0.84800
O754        O  0.44464572  0.52780646  0.42404560    -0.85800
O755        O  0.61145093  0.58245461  0.50691784    -0.85000
O756        O  0.49831915  0.43280624  0.46888258    -0.85400
O757        O  0.41742122  0.59818059  0.52310600    -0.85100
O758        O  0.51662085  0.63879960  0.55651042    -0.84700
O759        O  0.59647768  0.47230006  0.50692469    -0.85200
O760        O  0.55576195  0.52814122  0.41197449    -0.85400
O761        O  0.51828595  0.62395550  0.44891798    -0.86800
Zr762      Zr  0.53552598  0.47692347  0.49421174     2.83100
Zr763      Zr  0.47827762  0.59417204  0.53490708     2.83500
Zr764      Zr  0.44840545  0.51498364  0.48479174     2.84100
Zr765      Zr  0.56614146  0.55639941  0.54345618     2.83400
Zr766      Zr  0.52974238  0.56447686  0.45525804     2.84200
O767        O  0.53349347  0.58958640  0.50944600    -1.07400
O768        O  0.50336932  0.51022877  0.45940229    -1.06900
C769        C  0.56071732  0.49617271  0.40973292     1.07800
C770        C  0.50152332  0.64630392  0.46672416     1.10400
C771        C  0.46605841  0.43138756  0.46180039     1.08000
C772        C  0.61909786  0.49099251  0.52284073     1.08300
C773        C  0.54920559  0.64090899  0.56180551     1.07900
C774        C  0.39488765  0.58069649  0.50599368     1.07500
C775        C  0.46294618  0.54541746  0.40183617     1.07900
C776        C  0.61391420  0.58956549  0.47472098     1.07400
H777        H  0.46035344  0.58327970  0.46572217     0.34100
O778        O  0.47396584  0.56947538  0.47984857    -1.28500
H779        H  0.58468816  0.52777736  0.47771689     0.34100
O780        O  0.56225433  0.53050634  0.48892396    -1.29800
C781        C  0.37283232  0.34386566  0.47895254    -0.17300
C782        C  0.40073296  0.35488847  0.46878053     0.06800
C783        C  0.42990152  0.37508390  0.45836297     0.08600
C784        C  0.45019892  0.39875164  0.45517351    -0.18100
C785        C  0.36119745  0.59418540  0.50564760    -0.17300
C786        C  0.33496964  0.60956085  0.50709518     0.06800
C787        C  0.30857969  0.63304288  0.50886768     0.08600
C788        C  0.29223635  0.65828798  0.50915482    -0.18100
C789        C  0.65335701  0.47970766  0.52292410    -0.17300
C790        C  0.68248377  0.47069986  0.52173677     0.06800
C791        C  0.71452062  0.45582794  0.51841288     0.08600
C792        C  0.73709814  0.43615267  0.51481823    -0.18100
C793        C  0.56465705  0.67429499  0.56355642    -0.17300
C794        C  0.58059235  0.69977236  0.55520144     0.06800
C795        C  0.60342351  0.72400194  0.53953911     0.08600
C796        C  0.62735597  0.74014461  0.52659482    -0.18100
C797        C  0.38080757  0.55689998  0.30393555    -0.17300
C798        C  0.40666106  0.55609970  0.31977388     0.06800
C799        C  0.43191835  0.55287464  0.34414729     0.08600
C800        C  0.44854487  0.54924029  0.36906642    -0.18100
C801        C  0.50114140  0.67923257  0.45237439    -0.17300
C802        C  0.50261347  0.70525764  0.43684353     0.06800
C803        C  0.50565009  0.73271524  0.41442925     0.08600
C804        C  0.50822226  0.75289328  0.39169860    -0.18100
C805        C  0.71457501  0.56818811  0.39449352    -0.17300
C806        C  0.69877516  0.57904528  0.41932251     0.05400
C807        C  0.67413134  0.59123501  0.44357386     0.08600
C808        C  0.64788612  0.59586269  0.46023691    -0.18100
C809        C  0.53021191  0.43948588  0.29813457    -0.17300
C810        C  0.54338025  0.45849503  0.31858130     0.06800
C811        C  0.55891152  0.47305288  0.34750312     0.08600
C812        C  0.56586317  0.48314617  0.37572794    -0.18100
C813        C  0.63544701  0.52938039  0.72607433    -0.17300
C814        C  0.60989768  0.52500626  0.70983497     0.06800
C815        C  0.58479892  0.52255631  0.68475595     0.08600
C816        C  0.56800668  0.52296507  0.65946747    -0.18100
C817        C  0.52995993  0.33203153  0.64668747    -0.17300
C818        C  0.52905495  0.34483846  0.61911685     0.06800
C819        C  0.52454641  0.36860368  0.59367682     0.08600
C820        C  0.51969837  0.39352876  0.57775669    -0.18100
C821        C  0.29450403  0.53218616  0.61678556    -0.17300
C822        C  0.31012996  0.51660249  0.59477644     0.06800
C823        C  0.33584759  0.49748583  0.57790992     0.08600
C824        C  0.36307436  0.48732084  0.56692251    -0.18100
C825        C  0.48870619  0.65190135  0.72049172    -0.17300
C826        C  0.47520641  0.62946860  0.70376985     0.06800
C827        C  0.45919686  0.60802796  0.67924251     0.08600
C828        C  0.45110020  0.59234159  0.65377688    -0.18100
C829        C  0.73370345  0.78476884  0.56662004    -0.12100
C830        C  0.74066393  0.78850080  0.59661381    -0.13600
C831        C  0.72665068  0.60928179  0.75567052    -0.12100
C832        C  0.73155347  0.63981308  0.75727001    -0.13600
C833        C  0.60414238  0.75276543  0.73833414    -0.12100
C834        C  0.57393451  0.74316018  0.73970168    -0.13600
C835        C  0.77709645  0.33604619  0.60360737    -0.12100
C836        C  0.77614469  0.34188276  0.57315319    -0.13600
C837        C  0.61395331  0.33381173  0.76310743    -0.12100
C838        C  0.58399263  0.33340386  0.75515466    -0.13600
C839        C  0.75338804  0.45686147  0.75324485    -0.12100
C840        C  0.74427923  0.48588077  0.75270250    -0.13600
C841        C  0.27718946  0.76391451  0.56869018    -0.12100
C842        C  0.27607061  0.77315982  0.59835464    -0.13600
C843        C  0.41943670  0.76613869  0.76384352    -0.12100
C844        C  0.44910944  0.75759977  0.76110606    -0.13600
C845        C  0.28932913  0.64491624  0.71799461    -0.12100
C846        C  0.29006850  0.61484819  0.71054527    -0.13600
C847        C  0.27360919  0.33615117  0.59637150    -0.12100
C848        C  0.27897377  0.33568526  0.56520807    -0.13600
C849        C  0.28496143  0.49094488  0.72875279    -0.12100
C850        C  0.28525840  0.46138598  0.73662148    -0.13600
C851        C  0.42583003  0.33454980  0.75288242    -0.12100
C852        C  0.45690323  0.33392125  0.74789607    -0.13600
C853        C  0.15643155  0.25259394  0.01857843    -0.17300
C854        C  0.12865844  0.24076674  0.02809094     0.06800
C855        C  0.10048847  0.21995059  0.03991090     0.08600
C856        C  0.08081482  0.19618045  0.04543869    -0.18100
C857        C  0.25503819  0.26787017  0.93928203    -0.12100
C858        C  0.26106970  0.26948691  0.90838047    -0.13600
C859        C  0.71951742  0.76670569  0.44159803    -0.12100
C860        C  0.72803057  0.76735329  0.41111383    -0.13600
C861        C  0.60688607  0.80093123  0.28917478    -0.12100
C862        C  0.57623026  0.79932744  0.29690304    -0.13600
C863        C  0.75347229  0.61135847  0.28619944    -0.12100
C864        C  0.75790534  0.64107554  0.27859948    -0.13600
C865        C  0.76075632  0.33113082  0.41639139    -0.12100
C866        C  0.76300785  0.33818742  0.44678773    -0.13600
C867        C  0.73612522  0.48653411  0.30167509    -0.12100
C868        C  0.73605766  0.45623141  0.29430746    -0.13600
C869        C  0.60025489  0.32550964  0.26036701    -0.12100
C870        C  0.57027022  0.33340292  0.26087767    -0.13600
C871        C  0.27856779  0.76698657  0.41388128    -0.12100
C872        C  0.27971825  0.75800832  0.44325383    -0.13600
C873        C  0.27021614  0.64256245  0.27520304    -0.12100
C874        C  0.27861622  0.61330863  0.27530410    -0.13600
C875        C  0.41889317  0.80776062  0.29532782    -0.12100
C876        C  0.44892273  0.80513865  0.30229121    -0.13600
C877        C  0.15585736  0.03139709  0.19504983    -0.17300
C878        C  0.12957092  0.03078743  0.17988843     0.06800
C879        C  0.10336424  0.03419309  0.15669274     0.08600
C880        C  0.08551780  0.03914837  0.13302478    -0.18100
C881        C  0.26809323  0.95238415  0.22430381    -0.12100
C882        C  0.26176202  0.98222856  0.22217756    -0.13600
C883        C  0.24979054  0.32707478  0.41000877    -0.12100
C884        C  0.25833189  0.32875290  0.43979800    -0.13600
C885        C  0.41415730  0.35017423  0.25597180    -0.12100
C886        C  0.44511808  0.35604208  0.25851416    -0.13600
C887        C  0.28172467  0.48866240  0.27391430    -0.12100
C888        C  0.27453707  0.45859226  0.27235894    -0.13600
C889        C  0.26782512  0.26350700  0.06563195    -0.12100
C890        C  0.27471708  0.26423524  0.09587543    -0.13600
C891        C  0.25384190  0.13837977  0.22504558    -0.12100
C892        C  0.25021286  0.10768693  0.22176061    -0.13600
C893        C  0.99080217  0.15912505  0.20941439    -0.17300
C894        C  0.97882298  0.13977316  0.18858943     0.06800
C895        C  0.96515719  0.12349068  0.15963307     0.08600
C896        C  0.96016936  0.11202609  0.13147962    -0.18100
C897        C  0.94468957  0.25848318  0.25801714    -0.12100
C898        C  0.91421555  0.26524131  0.25979191    -0.13600
C899        C  0.10347890  0.25301547  0.24847327    -0.12100
C900        C  0.07248579  0.24639493  0.24723126    -0.13600
C901        C  0.77275886  0.95470547  0.23329608    -0.12100
C902        C  0.77625471  0.98479513  0.22725157    -0.13600
C903        C  0.78213066  0.14060048  0.22531159    -0.12100
C904        C  0.78494343  0.11057256  0.21776042    -0.13600
C905        C  0.87978969  0.00742363  0.05166427    -0.17300
C906        C  0.85524169  0.01322324  0.07047683     0.06800
C907        C  0.83276940  0.02522554  0.09694428     0.08600
C908        C  0.81784467  0.03480558  0.12287655    -0.18100
C909        C  0.08038955  0.78922988  0.20721630    -0.12100
C910        C  0.10997051  0.78697823  0.21598425    -0.13600
C911        C  0.95280329  0.79257334  0.20265129    -0.12100
C912        C  0.92186716  0.79117768  0.20970569    -0.13600
C913        C  0.02708055  0.84051066  0.11302733    -0.17300
C914        C  0.02914613  0.86127034  0.09079520     0.06800
C915        C  0.03007329  0.88951456  0.06933756     0.08600
C916        C  0.02968328  0.91598419  0.05465948    -0.18100
C917        C  0.24079792  0.95740595  0.79165069    -0.12100
C918        C  0.24056452  0.98772620  0.79821695    -0.13600
C919        C  0.25173718  0.14040974  0.76597586    -0.12100
C920        C  0.25062395  0.11086482  0.77425281    -0.13600
C921        C  0.23108023  0.07490631  0.88758900    -0.17300
C922        C  0.21517702  0.09082172  0.90911632     0.06800
C923        C  0.18917520  0.10922989  0.92627357     0.08600
C924        C  0.16144539  0.11745069  0.93769811    -0.18100
C925        C  0.95292996  0.84627422  0.77318351    -0.12100
C926        C  0.92254987  0.83699910  0.77402957    -0.13600
C927        C  0.10772553  0.82207762  0.75063239    -0.12100
C928        C  0.07775727  0.82981540  0.75283825    -0.13600
C929        C  0.07181265  0.00350647  0.85134150    -0.17300
C930        C  0.06548672  0.98634611  0.82630514     0.06800
C931        C  0.05168803  0.96207851  0.80309866     0.08600
C932        C  0.03928363  0.93775536  0.78828731    -0.18100
C933        C  0.92405932  0.26873645  0.75586439    -0.12100
C934        C  0.95472174  0.26984987  0.76126874    -0.13600
C935        C  0.08221340  0.26411932  0.75717621    -0.12100
C936        C  0.11284048  0.26210468  0.74979746    -0.13600
C937        C  0.01377682  0.20464270  0.93278366    -0.17300
C938        C  0.01404802  0.23039628  0.91677543     0.06800
C939        C  0.01546958  0.25528022  0.89139773     0.08600
C940        C  0.01708117  0.26906240  0.86410848    -0.18100
C941        C  0.78966897  0.95242604  0.75159784    -0.12100
C942        C  0.79608438  0.98281517  0.75260306    -0.13600
C943        C  0.79011814  0.10773580  0.75897246    -0.12100
C944        C  0.78185916  0.13706624  0.76040600    -0.13600
C945        C  0.89528035  0.05383489  0.77868372    -0.17300
C946        C  0.92049966  0.05804087  0.79540593     0.06800
C947        C  0.94459685  0.06328179  0.82113142     0.08600
C948        C  0.96045414  0.06641400  0.84695665    -0.18100
C949        C  0.24392964  0.83409032  0.06856830    -0.12100
C950        C  0.24436760  0.82494469  0.09799602    -0.13600
C951        C  0.25492973  0.83055467  0.91240786    -0.12100
C952        C  0.25300341  0.83797121  0.94263782    -0.13600
C953        C  0.23538446  0.93848464  0.00968422    -0.17300
C954        C  0.21894655  0.96342678  0.00810687     0.06800
C955        C  0.19210939  0.98567219  0.00481350     0.08600
C956        C  0.16556224  0.99978702  0.00213426    -0.18100
C957        C  0.75635052  0.25711331  0.06991952    -0.12100
C958        C  0.75652707  0.26539776  0.10029550    -0.13600
C959        C  0.75569408  0.25487686  0.91103441    -0.12100
C960        C  0.75460556  0.25039775  0.94192574    -0.13600
C961        C  0.87254097  0.11282660  0.99232927    -0.17300
C962        C  0.84354477  0.12199020  0.99668302     0.06800
C963        C  0.81213774  0.13789931  0.00224654     0.08600
C964        C  0.79009590  0.15823724  0.00585350    -0.18100
C965        C  0.81385031  0.82519914  0.06352451    -0.12100
C966        C  0.80473564  0.82485535  0.09394236    -0.13600
C967        C  0.79459797  0.79789501  0.90916365    -0.12100
C968        C  0.80212455  0.80219560  0.93889843    -0.13600
C969        C  0.90502067  0.85429941  0.97802560    -0.17300
C970        C  0.92711412  0.87161432  0.96362386     0.06800
C971        C  0.94788896  0.89637105  0.94637226     0.08600
C972        C  0.96295087  0.92215889  0.93774297    -0.18100
loop_ 
_geom_bond_atom_site_label_1 
_geom_bond_atom_site_label_2 
_geom_bond_distance 
_geom_bond_site_symmetry_2 
_ccdc_geom_bond_type 
C1            N2   1.363       .  A
C1            N6   1.372       .  A
C1          C965   1.458       .  S
N2            C3   1.359   1_554  A
C3            N4   1.344       .  A
C3          C969   1.426       .  S
N4            C5   1.346       .  A
C5            N6   1.368   1_556  A
C5          C968   1.440       .  S
C7            N8   1.375       .  A
C7           N12   1.355       .  A
C7          C957   1.455       .  S
N8            C9   1.374   1_554  A
C9           N10   1.349       .  A
C9          C960   1.447       .  S
N10          C11   1.346   1_556  A
C11          N12   1.351       .  A
C11         C964   1.419       .  S
C13          N14   1.364       .  A
C13          N18   1.354       .  A
C13         C949   1.436       .  S
N14          C15   1.363   1_554  A
C15          N16   1.352       .  A
C15         C952   1.433       .  S
N16          C17   1.350   1_556  A
C17          N18   1.351       .  A
C17         C953   1.420       .  S
C19          N20   1.369       .  A
C19          N24   1.352       .  A
C19         C943   1.443       .  S
N20          C21   1.370       .  A
C21          N22   1.356       .  A
C21         C942   1.449   1_545  S
N22          C23   1.353       .  A
C23          N24   1.349       .  A
C23         C945   1.426       .  S
C25          N26   1.370   1_655  A
C25          N30   1.353       .  A
C25         C934   1.445       .  S
N26          C27   1.370       .  A
C27          N28   1.355       .  A
C27         C935   1.447       .  S
N28          C29   1.352       .  A
C29          N30   1.350   1_455  A
C29         C940   1.426       .  S
C31          N32   1.363       .  A
C31          N36   1.370   1_655  A
C31         C925   1.456       .  S
N32          C33   1.360   1_655  A
C33          N34   1.346       .  A
C33         C932   1.431       .  S
N34          C35   1.348       .  A
C35          N36   1.366       .  A
C35         C928   1.439       .  S
C37          N38   1.344       .  A
C37          N42   1.369       .  A
C37         C920   1.443       .  S
N38          C39   1.343       .  A
C39          N40   1.358       .  A
C39         C921   1.423       .  S
N40          C41   1.362       .  A
C41          N42   1.374       .  A
C41         C918   1.456   1_545  S
C43          N44   1.355       .  A
C43          N48   1.371   1_655  A
C43         C911   1.453       .  S
N44          C45   1.352   1_655  A
C45          N46   1.352       .  A
C45         C913   1.427       .  S
N46          C47   1.355       .  A
C47          N48   1.371       .  A
C47         C909   1.450       .  S
C49          N50   1.362       .  A
C49          N54   1.375       .  A
C49         C904   1.462       .  S
N50          C51   1.357       .  A
C51          N52   1.346       .  A
C51         C908   1.429       .  S
N52          C53   1.348       .  A
C53          N54   1.372       .  A
C53         C902   1.448   1_545  S
C55          N56   1.345       .  A
C55          N60   1.374   1_655  A
C55         C897   1.451       .  S
N56          C57   1.344       .  A
C57          N58   1.355   1_655  A
C57         C893   1.419       .  S
N58          C59   1.360       .  A
C59          N60   1.377       .  A
C59         C900   1.460       .  S
Zr61         O62   2.438       .  S
Zr61         O63   2.458       .  S
Zr61         O64   2.477       .  S
Zr61         O67   2.460       .  S
Zr61         O69   2.383       .  S
Zr61         O70   2.393       .  S
Zr61         O71   2.413       .  S
Zr61         O72   2.403       .  S
O62         H118   0.990       .  S
O62         H126   0.991       .  S
O63          C83   1.287       .  A
O64          C85   1.291       .  A
O65         Zr75   2.446       .  S
O65          C84   1.286       .  A
O66         Zr74   2.452       .  S
O66          C85   1.286       .  A
O67          C84   1.289       .  A
O68         Zr76   2.407       .  S
O68          C83   1.276       .  A
O69         Zr74   2.395       .  S
O69         Zr76   2.383       .  S
O70         Zr75   2.403       .  S
O70         Zr76   2.384       .  S
O70         H105   0.965       .  S
O71         Zr74   2.401       .  S
O71         Zr91   2.385       .  S
O71         H108   0.964       .  S
O72         Zr75   2.387       .  S
O72         Zr91   2.388       .  S
Zr73         O98   2.440       .  S
Zr73         O92   2.482       .  S
Zr73        O100   2.489       .  S
Zr73         O88   2.478       .  S
Zr73         O79   2.406       .  S
Zr73         O80   2.425       .  S
Zr73         O81   2.387       .  S
Zr73         O82   2.387       .  S
Zr74         O93   2.430       .  S
Zr74         O86   2.439       .  S
Zr74         O87   2.442       .  S
Zr74         O80   2.410       .  S
Zr74         O81   2.408       .  S
Zr75         O77   2.435       .  S
Zr75         O99   2.436       .  S
Zr75        O101   2.435       .  S
Zr75         O79   2.392       .  S
Zr75         O82   2.407       .  S
Zr76        O102   2.436       .  S
Zr76        O103   2.436       .  S
Zr76         O78   2.441       .  S
Zr76         O79   2.392       .  S
Zr76         O80   2.386       .  S
O77         H114   0.990       .  S
O78         H109   0.991       .  S
O78         H123   0.990       .  S
O80         H106   0.964       .  S
O81         Zr91   2.382       .  S
O82         Zr91   2.384       .  S
O82         H107   0.965       .  S
C83         C888   1.440       .  S
C84         C883   1.455       .  S
C85         C885   1.459       .  S
O86         H122   0.990       .  S
O87          C89   1.285       .  A
O88          C89   1.292       .  A
C89         C890   1.452       .  S
O90         Zr91   2.437       .  S
O90         H119   0.990       .  S
Zr91         O94   2.436       .  S
Zr91         O95   2.437       .  S
Zr91         O96   2.417       .  S
O92          C97   1.292       .  A
O93         H110   0.990       .  S
O93         H125   0.990       .  S
O94         H111   0.990       .  S
O95         H115   0.990       .  S
O95         H124   0.990       .  S
O96          C97   1.278       .  A
C97         C891   1.456       .  S
O98         H117   0.991       .  S
O98         H121   0.990       .  S
O99         H113   0.990       .  S
O99         H120   0.990       .  S
O100        C104   1.294       .  A
O101        C104   1.283       .  A
O102        H112   0.990       .  S
O103        H116   0.990       .  S
C104        C899   1.461       .  S
C127        N128   1.353       .  A
C127        N132   1.374       .  A
C127        C892   1.453       .  S
N128        C129   1.350       .  A
C129        N130   1.347       .  A
C129        C877   1.420       .  S
N130        C131   1.352       .  A
C131        N132   1.374       .  A
C131        C882   1.449   1_545  S
Zr133       O134   2.440       .  S
Zr133       O135   2.450       .  S
Zr133       O136   2.467       .  S
Zr133       O139   2.448       .  S
Zr133       O141   2.383       .  S
Zr133       O142   2.391       .  S
Zr133       O143   2.414       .  S
Zr133       O144   2.405       .  S
O134        H190   0.990       .  S
O134        H198   0.990       .  S
O135        C155   1.285       .  A
O136        C157   1.288       .  A
O137       Zr147   2.437       .  S
O137        C156   1.283       .  A
O138       Zr146   2.439       .  S
O138        C157   1.283       .  A
O139        C156   1.286       .  A
O140       Zr148   2.406       .  S
O140        C155   1.276       .  A
O141       Zr146   2.395       .  S
O141       Zr148   2.389       .  S
O142       Zr147   2.398       .  S
O142       Zr148   2.386       .  S
O142        H177   0.967       .  S
O143       Zr146   2.405       .  S
O143       Zr163   2.389       .  S
O143        H180   0.964       .  S
O144       Zr147   2.391       .  S
O144       Zr163   2.393       .  S
Zr145       O170   2.438       .  S
Zr145       O164   2.451       .  S
Zr145       O172   2.458       .  S
Zr145       O160   2.477       .  S
Zr145       O151   2.406       .  S
Zr145       O152   2.407       .  S
Zr145       O153   2.384       .  S
Zr145       O154   2.390       .  S
Zr146       O165   2.436       .  S
Zr146       O158   2.432       .  S
Zr146       O159   2.435       .  S
Zr146       O152   2.401       .  S
Zr146       O153   2.405       .  S
Zr147       O149   2.436       .  S
Zr147       O171   2.436       .  S
Zr147       O173   2.439       .  S
Zr147       O151   2.397       .  S
Zr147       O154   2.396       .  S
Zr148       O174   2.437       .  S
Zr148       O175   2.437       .  S
Zr148       O150   2.439       .  S
Zr148       O151   2.388       .  S
Zr148       O152   2.388       .  S
O149        H186   0.990       .  S
O150        H181   0.991       .  S
O150        H195   0.990       .  S
O152        H178   0.965       .  S
O153       Zr163   2.382       .  S
O154       Zr163   2.378       .  S
O154        H179   0.965       .  S
C155        C871   1.434       .  S
C156        C873   1.444       .  S
C157        C875   1.449       .  S
O158        H194   0.990       .  S
O159        C161   1.283       .  A
O160        C161   1.291       .  A
C161        C881   1.454       .  S
O162       Zr163   2.439       .  S
O162        H191   0.991       .  S
Zr163       O166   2.438       .  S
Zr163       O167   2.439       .  S
Zr163       O168   2.416       .  S
O164        C169   1.286       .  A
O165        H182   0.990       .  S
O165        H197   0.990       .  S
O166        H183   0.990       .  S
O167        H187   0.990       .  S
O167        H196   0.990       .  S
O168        C169   1.278       .  A
C169        C950   1.438       .  S
O170        H189   0.991       .  S
O170        H193   0.990       .  S
O171        H185   0.990       .  S
O171        H192   0.990       .  S
O172        C176   1.289       .  A
O173        C176   1.285       .  A
O174        H184   0.990       .  S
O175        H188   0.990       .  S
C176        C910   1.452       .  S
Zr199       O200   2.439       .  S
Zr199       O201   2.479       .  S
Zr199       O202   2.491       .  S
Zr199       O205   2.474       .  S
Zr199       O207   2.383       .  S
Zr199       O208   2.391       .  S
Zr199       O209   2.418       .  S
Zr199       O210   2.414       .  S
O200        H256   0.990       .  S
O200        H264   0.990       .  S
O201        C221   1.291       .  A
O202        C223   1.294       .  A
O203       Zr213   2.434       .  S
O203        C222   1.283       .  A
O204       Zr212   2.432       .  S
O204        C223   1.282       .  A
O205        C222   1.292       .  A
O206       Zr214   2.435       .  S
O206        C221   1.282       .  A
O207       Zr212   2.402       .  S
O207       Zr214   2.381       .  S
O208       Zr213   2.401       .  S
O208       Zr214   2.379       .  S
O208        H243   0.966       .  S
O209       Zr212   2.403       .  S
O209       Zr229   2.397       .  S
O209        H246   0.964       .  S
O210       Zr213   2.392       .  S
O210       Zr229   2.401       .  S
Zr211       O236   2.444       .  S
Zr211       O230   2.492       .  S
Zr211       O238   2.471       .  S
Zr211       O226   2.484       .  S
Zr211       O217   2.413       .  S
Zr211       O218   2.424       .  S
Zr211       O219   2.379       .  S
Zr211       O220   2.393       .  S
Zr212       O231   2.431       .  S
Zr212       O224   2.435       .  S
Zr212       O225   2.422       .  S
Zr212       O218   2.404       .  S
Zr212       O219   2.396       .  S
Zr213       O215   2.438       .  S
Zr213       O237   2.436       .  S
Zr213       O239   2.423       .  S
Zr213       O217   2.391       .  S
Zr213       O220   2.403       .  S
Zr214       O240   2.439       .  S
Zr214       O241   2.439       .  S
Zr214       O216   2.437       .  S
Zr214       O217   2.396       .  S
Zr214       O218   2.393       .  S
O215        H252   0.990       .  S
O216        H247   0.990       .  S
O216        H261   0.990       .  S
O218        H244   0.964       .  S
O219       Zr229   2.380       .  S
O220       Zr229   2.382       .  S
O220        H245   0.966       .  S
C221        C903   1.463       .  S
C222        C958   1.458       .  S
C223        C898   1.458       .  S
O224        H260   0.990       .  S
O225        C227   1.280       .  A
O226        C227   1.292       .  A
C227        C865   1.449       .  S
O228       Zr229   2.439       .  S
O228        H257   0.991       .  S
Zr229       O232   2.438       .  S
Zr229       O233   2.438       .  S
Zr229       O234   2.425       .  S
O230        C235   1.294       .  A
O231        H248   0.990       .  S
O231        H263   0.990       .  S
O232        H249   0.990       .  S
O233        H253   0.990       .  S
O233        H262   0.990       .  S
O234        C235   1.280       .  A
C235        C868   1.464       .  S
O236        H255   0.991       .  S
O236        H259   0.990       .  S
O237        H251   0.990       .  S
O237        H258   0.990       .  S
O238        C242   1.291       .  A
O239        C242   1.280       .  A
O240        H250   0.990       .  S
O241        H254   0.991       .  S
C242        C869   1.448       .  S
Zr265       O266   2.443       .  S
Zr265       O267   2.475       .  S
Zr265       O268   2.473       .  S
Zr265       O271   2.452       .  S
Zr265       O273   2.385       .  S
Zr265       O274   2.385       .  S
Zr265       O275   2.413       .  S
Zr265       O276   2.414       .  S
O266        H322   0.990       .  S
O266        H330   0.990       .  S
O267        C287   1.290       .  A
O268        C289   1.290       .  A
O269       Zr279   2.436       .  S
O269        C288   1.282       .  A
O270       Zr278   2.445       .  S
O270        C289   1.285       .  A
O271        C288   1.287       .  A
O272       Zr280   2.419       .  S
O272        C287   1.279       .  A
O273       Zr278   2.408       .  S
O273       Zr280   2.383       .  S
O274       Zr279   2.396       .  S
O274       Zr280   2.377       .  S
O274        H309   0.964       .  S
O275       Zr278   2.406       .  S
O275       Zr295   2.399       .  S
O275        H312   0.965       .  S
O276       Zr279   2.389       .  S
O276       Zr295   2.397       .  S
Zr277       O302   2.445       .  S
Zr277       O296   2.483       .  S
Zr277       O304   2.471       .  S
Zr277       O292   2.475       .  S
Zr277       O283   2.411       .  S
Zr277       O284   2.419       .  S
Zr277       O285   2.380       .  S
Zr277       O286   2.392       .  S
Zr278       O297   2.435       .  S
Zr278       O290   2.433       .  S
Zr278       O291   2.446       .  S
Zr278       O284   2.409       .  S
Zr278       O285   2.399       .  S
Zr279       O281   2.435       .  S
Zr279       O303   2.440       .  S
Zr279       O305   2.427       .  S
Zr279       O283   2.397       .  S
Zr279       O286   2.402       .  S
Zr280       O306   2.432       .  S
Zr280       O307   2.436       .  S
Zr280       O282   2.439       .  S
Zr280       O283   2.399       .  S
Zr280       O284   2.390       .  S
O281        H318   0.990       .  S
O282        H313   0.990       .  S
O282        H327   0.990       .  S
O284        H310   0.964       .  S
O285       Zr295   2.378       .  S
O286       Zr295   2.383       .  S
O286        H311   0.966       .  S
C287        C860   1.453       .  S
C288        C861   1.446       .  S
C289        C864   1.457       .  S
O290        H326   0.990       .  S
O291        C293   1.285       .  A
O292        C293   1.291       .  A
C293        C912   1.455       .  S
O294       Zr295   2.441       .  S
O294        H323   0.990       .  S
Zr295       O298   2.437       .  S
Zr295       O299   2.440       .  S
Zr295       O300   2.423       .  S
O296        C301   1.292       .  A
O297        H314   0.990       .  S
O297        H329   0.990       .  S
O298        H315   0.990       .  S
O299        H319   0.990       .  S
O299        H328   0.990       .  S
O300        C301   1.280       .  A
C301        C966   1.459       .  S
O302        H321   0.991       .  S
O302        H325   0.990       .  S
O303        H317   0.990       .  S
O303        H324   0.990       .  S
O304        C308   1.291       .  A
O305        C308   1.282       .  A
O306        H316   0.990       .  S
O307        H320   0.990       .  S
C308        C901   1.452       .  S
C331        N332   1.351       .  A
C331        N336   1.370       .  A
C331        C889   1.449       .  S
N332        C333   1.348       .  A
C333        N334   1.355   1_554  A
C333        C853   1.430       .  S
N334        C335   1.360       .  A
C335        N336   1.373   1_556  A
C335        C857   1.452       .  S
Zr337       O338   2.443       .  S
Zr337       O339   2.475       .  S
Zr337       O340   2.478       .  S
Zr337       O343   2.473       .  S
Zr337       O345   2.387       .  S
Zr337       O346   2.388       .  S
Zr337       O347   2.422       .  S
Zr337       O348   2.410       .  S
O338        H394   0.990       .  S
O338        H402   0.990       .  S
O339        C359   1.290       .  A
O340        C361   1.291       .  A
O341       Zr351   2.432       .  S
O341        C360   1.283       .  A
O342       Zr350   2.441       .  S
O342        C361   1.284       .  A
O343        C360   1.291       .  A
O344       Zr352   2.407       .  S
O344        C359   1.275       .  A
O345       Zr350   2.404       .  S
O345       Zr352   2.389       .  S
O346       Zr351   2.397       .  S
O346       Zr352   2.379       .  S
O346        H381   0.966       .  S
O347       Zr350   2.409       .  S
O347       Zr367   2.386       .  S
O347        H384   0.963       .  S
O348       Zr351   2.388       .  S
O348       Zr367   2.390       .  S
Zr349       O374   2.440       .  S
Zr349       O368   2.473       .  S
Zr349       O376   2.476       .  S
Zr349       O364   2.492       .  S
Zr349       O355   2.408       .  S
Zr349       O356   2.418       .  S
Zr349       O357   2.382       .  S
Zr349       O358   2.391       .  S
Zr350       O369   2.436       .  S
Zr350       O362   2.436       .  S
Zr350       O363   2.439       .  S
Zr350       O356   2.400       .  S
Zr350       O357   2.403       .  S
Zr351       O353   2.435       .  S
Zr351       O375   2.435       .  S
Zr351       O377   2.423       .  S
Zr351       O355   2.387       .  S
Zr351       O358   2.402       .  S
Zr352       O378   2.435       .  S
Zr352       O379   2.434       .  S
Zr352       O354   2.437       .  S
Zr352       O355   2.387       .  S
Zr352       O356   2.384       .  S
O353        H390   0.990       .  S
O354        H385   0.991       .  S
O354        H399   0.990       .  S
O356        H382   0.965       .  S
O357       Zr367   2.388       .  S
O358       Zr367   2.378       .  S
O358        H383   0.967       .  S
C359        C919   1.449       .  S
C360        C858   1.453       .  S
C361        C936   1.449       .  S
O362        H398   0.990       .  S
O363        C365   1.284       .  A
O364        C365   1.294       .  A
C365        C847   1.459       .  S
O366       Zr367   2.439       .  S
O366        H395   0.990       .  S
Zr367       O370   2.437       .  S
Zr367       O371   2.440       .  S
Zr367       O372   2.403       .  S
O368        C373   1.290       .  A
O369        H386   0.990       .  S
O369        H401   0.990       .  S
O370        H387   0.989       .  S
O371        H391   0.990       .  S
O371        H400   0.990       .  S
O372        C373   1.275       .  A
C373        C850   1.445       .  S
O374        H393   0.990       .  S
O374        H397   0.990       .  S
O375        H389   0.990       .  S
O375        H396   0.990       .  S
O376        C380   1.292       .  A
O377        C380   1.281       .  A
O378        H388   0.990       .  S
O379        H392   0.990       .  S
C380        C851   1.446       .  S
Zr403       O404   2.440       .  S
Zr403       O405   2.479       .  S
Zr403       O406   2.454       .  S
Zr403       O409   2.463       .  S
Zr403       O411   2.386       .  S
Zr403       O412   2.385       .  S
Zr403       O413   2.422       .  S
Zr403       O414   2.402       .  S
O404        H460   0.990       .  S
O404        H468   0.990       .  S
O405        C425   1.291       .  A
O406        C427   1.286       .  A
O407       Zr417   2.426       .  S
O407        C426   1.281       .  A
O408       Zr416   2.420       .  S
O408        C427   1.281       .  A
O409        C426   1.289       .  A
O410       Zr418   2.414       .  S
O410        C425   1.278       .  A
O411       Zr416   2.400       .  S
O411       Zr418   2.381       .  S
O412       Zr417   2.396       .  S
O412       Zr418   2.383       .  S
O412        H447   0.966       .  S
O413       Zr416   2.405       .  S
O413       Zr433   2.392       .  S
O413        H450   0.964       .  S
O414       Zr417   2.384       .  S
O414       Zr433   2.393       .  S
Zr415       O440   2.441       .  S
Zr415       O434   2.469       .  S
Zr415       O442   2.434       .  S
Zr415       O430   2.461       .  S
Zr415       O421   2.411       .  S
Zr415       O422   2.411       .  S
Zr415       O423   2.377       .  S
Zr415       O424   2.388       .  S
Zr416       O435   2.435       .  S
Zr416       O428   2.435       .  S
Zr416       O429   2.430       .  S
Zr416       O422   2.396       .  S
Zr416       O423   2.400       .  S
Zr417       O419   2.434       .  S
Zr417       O441   2.442       .  S
Zr417       O443   2.413       .  S
Zr417       O421   2.391       .  S
Zr417       O424   2.402       .  S
Zr418       O444   2.433       .  S
Zr418       O445   2.436       .  S
Zr418       O420   2.438       .  S
Zr418       O421   2.395       .  S
Zr418       O422   2.385       .  S
O419        H456   0.990       .  S
O420        H451   0.990       .  S
O420        H465   0.990       .  S
O422        H448   0.963       .  S
O423       Zr433   2.381       .  S
O424       Zr433   2.380       .  S
O424        H449   0.967       .  S
C425        C917   1.455       .  S
C426        C927   1.444       .  S
C427        C951   1.434       .  S
O428        H464   0.990       .  S
O429        C431   1.282       .  A
O430        C431   1.287       .  A
C431        C843   1.442       .  S
O432       Zr433   2.439       .  S
O432        H461   0.990       .  S
Zr433       O436   2.436       .  S
Zr433       O437   2.441       .  S
Zr433       O438   2.423       .  S
O434        C439   1.289       .  A
O435        H452   0.990       .  S
O435        H467   0.990       .  S
O436        H453   0.990       .  S
O437        H457   0.990       .  S
O437        H466   0.990       .  S
O438        C439   1.279       .  A
C439        C845   1.453       .  S
O440        H459   0.991       .  S
O440        H463   0.990       .  S
O441        H455   0.990       .  S
O441        H462   0.990       .  S
O442        C446   1.283       .  A
O443        C446   1.279       .  A
O444        H454   0.990       .  S
O445        H458   0.990       .  S
C446        C842   1.428       .  S
Zr469       O470   2.441       .  S
Zr469       O471   2.472       .  S
Zr469       O472   2.501       .  S
Zr469       O475   2.484       .  S
Zr469       O477   2.384       .  S
Zr469       O478   2.397       .  S
Zr469       O479   2.419       .  S
Zr469       O480   2.411       .  S
O470        H526   0.991       .  S
O470        H534   0.990       .  S
O471        C491   1.289       .  A
O472        C493   1.296       .  A
O473       Zr483   2.418       .  S
O473        C492   1.280       .  A
O474       Zr482   2.424       .  S
O474        C493   1.280       .  A
O475        C492   1.294       .  A
O476       Zr484   2.403       .  S
O476        C491   1.276       .  A
O477       Zr482   2.401       .  S
O477       Zr484   2.389       .  S
O478       Zr483   2.402       .  S
O478       Zr484   2.383       .  S
O478        H513   0.967       .  S
O479       Zr482   2.402       .  S
O479       Zr499   2.386       .  S
O479        H516   0.963       .  S
O480       Zr483   2.389       .  S
O480       Zr499   2.390       .  S
Zr481       O506   2.440       .  S
Zr481       O500   2.466       .  S
Zr481       O508   2.473       .  S
Zr481       O496   2.476       .  S
Zr481       O487   2.406       .  S
Zr481       O488   2.416       .  S
Zr481       O489   2.382       .  S
Zr481       O490   2.386       .  S
Zr482       O501   2.435       .  S
Zr482       O494   2.437       .  S
Zr482       O495   2.428       .  S
Zr482       O488   2.403       .  S
Zr482       O489   2.398       .  S
Zr483       O485   2.437       .  S
Zr483       O507   2.438       .  S
Zr483       O509   2.420       .  S
Zr483       O487   2.389       .  S
Zr483       O490   2.394       .  S
Zr484       O510   2.436       .  S
Zr484       O511   2.438       .  S
Zr484       O486   2.436       .  S
Zr484       O487   2.387       .  S
Zr484       O488   2.381       .  S
O485        H522   0.990       .  S
O486        H517   0.990       .  S
O486        H531   0.990       .  S
O488        H514   0.964       .  S
O489       Zr499   2.384       .  S
O490       Zr499   2.380       .  S
O490        H515   0.965       .  S
C491        C944   1.445       .  S
C492        C933   1.449       .  S
C493        C959   1.452       .  S
O494        H530   0.990       .  S
O495        C497   1.282       .  A
O496        C497   1.291       .  A
C497        C837   1.446       .  S
O498       Zr499   2.436       .  S
O498        H527   0.990       .  S
Zr499       O502   2.436       .  S
Zr499       O503   2.439       .  S
Zr499       O504   2.413       .  S
O500        C505   1.289       .  A
O501        H518   0.990       .  S
O501        H533   0.990       .  S
O502        H519   0.990       .  S
O503        H523   0.990       .  S
O503        H532   0.990       .  S
O504        C505   1.278       .  A
C505        C839   1.445       .  S
O506        H525   0.991       .  S
O506        H529   0.990       .  S
O507        H521   0.990       .  S
O507        H528   0.990       .  S
O508        C512   1.292       .  A
O509        C512   1.280       .  A
O510        H520   0.990       .  S
O511        H524   0.990       .  S
C512        C835   1.447       .  S
Zr535       O536   2.440       .  S
Zr535       O537   2.473       .  S
Zr535       O538   2.471       .  S
Zr535       O541   2.463       .  S
Zr535       O543   2.384       .  S
Zr535       O544   2.387       .  S
Zr535       O545   2.418       .  S
Zr535       O546   2.413       .  S
O536        H592   0.990       .  S
O536        H600   0.990       .  S
O537        C557   1.289       .  A
O538        C559   1.290       .  A
O539       Zr549   2.439       .  S
O539        C558   1.285       .  A
O540       Zr548   2.422       .  S
O540        C559   1.280       .  A
O541        C558   1.289       .  A
O542       Zr550   2.426       .  S
O542        C557   1.280       .  A
O543       Zr548   2.408       .  S
O543       Zr550   2.381       .  S
O544       Zr549   2.399       .  S
O544       Zr550   2.377       .  S
O544        H579   0.968       .  S
O545       Zr548   2.408       .  S
O545       Zr565   2.393       .  S
O545        H582   0.964       .  S
O546       Zr549   2.392       .  S
O546       Zr565   2.393       .  S
Zr547       O572   2.441       .  S
Zr547       O566   2.474       .  S
Zr547       O574   2.460       .  S
Zr547       O562   2.460       .  S
Zr547       O553   2.407       .  S
Zr547       O554   2.417       .  S
Zr547       O555   2.381       .  S
Zr547       O556   2.389       .  S
Zr548       O567   2.436       .  S
Zr548       O560   2.434       .  S
Zr548       O561   2.439       .  S
Zr548       O554   2.402       .  S
Zr548       O555   2.395       .  S
Zr549       O551   2.436       .  S
Zr549       O573   2.437       .  S
Zr549       O575   2.430       .  S
Zr549       O553   2.390       .  S
Zr549       O556   2.406       .  S
Zr550       O576   2.436       .  S
Zr550       O577   2.435       .  S
Zr550       O552   2.439       .  S
Zr550       O553   2.396       .  S
Zr550       O554   2.391       .  S
O551        H588   0.990       .  S
O552        H583   0.990       .  S
O552        H597   0.990       .  S
O554        H580   0.964       .  S
O555       Zr565   2.386       .  S
O556       Zr565   2.382       .  S
O556        H581   0.966       .  S
C557        C926   1.455       .  S
C558        C941   1.451       .  S
C559        C967   1.444       .  S
O560        H596   0.990       .  S
O561        C563   1.284       .  A
O562        C563   1.287       .  A
C563        C832   1.446       .  S
O564       Zr565   2.437       .  S
O564        H593   0.990       .  S
Zr565       O568   2.433       .  S
Zr565       O569   2.440       .  S
Zr565       O570   2.408       .  S
O566        C571   1.289       .  A
O567        H584   0.990       .  S
O567        H599   0.990       .  S
O568        H585   0.989       .  S
O569        H589   0.990       .  S
O569        H598   0.990       .  S
O570        C571   1.276       .  A
C571        C833   1.450       .  S
O572        H591   0.991       .  S
O572        H595   0.990       .  S
O573        H587   0.990       .  S
O573        H594   0.990       .  S
O574        C578   1.289       .  A
O575        C578   1.282       .  A
O576        H586   0.990       .  S
O577        H590   0.990       .  S
C578        C830   1.447       .  S
C601        N602   1.369       .  A
C601        N606   1.363       .  A
C601        C834   1.451       .  S
N602        C603   1.365       .  A
C603        N604   1.347       .  A
C603        C844   1.438       .  S
N604        C605   1.346       .  A
C605        N606   1.359       .  A
C605        C825   1.430       .  S
C607        N608   1.368       .  A
C607        N612   1.344       .  A
C607        C849   1.440       .  S
N608        C609   1.372       .  A
C609        N610   1.362       .  A
C609        C846   1.452       .  S
N610        C611   1.357       .  A
C611        N612   1.344       .  A
C611        C821   1.423       .  S
C613        N614   1.355       .  A
C613        N618   1.369       .  A
C613        C838   1.445       .  S
N614        C615   1.351       .  A
C615        N616   1.349       .  A
C615        C817   1.421       .  S
N616        C617   1.351       .  A
C617        N618   1.369       .  A
C617        C852   1.443       .  S
C619        N620   1.352       .  A
C619        N624   1.368       .  A
C619        C840   1.442       .  S
N620        C621   1.349       .  A
C621        N622   1.353       .  A
C621        C813   1.427       .  S
N622        C623   1.356       .  A
C623        N624   1.369       .  A
C623        C831   1.446       .  S
C625        N626   1.345       .  A
C625        N630   1.370       .  A
C625        C870   1.442       .  S
N626        C627   1.344       .  A
C627        N628   1.356       .  A
C627        C809   1.421       .  S
N628        C629   1.361       .  A
C629        N630   1.374       .  A
C629        C886   1.458       .  S
C631        N632   1.376       .  A
C631        N636   1.361       .  A
C631        C867   1.464       .  S
N632        C633   1.373       .  A
C633        N634   1.348       .  A
C633        C863   1.452       .  S
N634        C635   1.346       .  A
C635        N636   1.358       .  A
C635        C805   1.428       .  S
C637        N638   1.354       .  A
C637        N642   1.369       .  A
C637        C862   1.444       .  S
N638        C639   1.351       .  A
C639        N640   1.351       .  A
C639        C804   1.425       .  S
N640        C641   1.354       .  A
C641        N642   1.369       .  A
C641        C876   1.447       .  S
C643        N644   1.367       .  A
C643        N648   1.352       .  A
C643        C887   1.439       .  S
N644        C645   1.367       .  A
C645        N646   1.355       .  A
C645        C874   1.442       .  S
N646        C647   1.351       .  A
C647        N648   1.350       .  A
C647        C797   1.424       .  S
C649        N650   1.362       .  A
C649        N654   1.372       .  A
C649        C859   1.454       .  S
N650        C651   1.358       .  A
C651        N652   1.345       .  A
C651        C796   1.429       .  S
N652        C653   1.347       .  A
C653        N654   1.368       .  A
C653        C829   1.442       .  S
C655        N656   1.372       .  A
C655        N660   1.352       .  A
C655        C866   1.447       .  S
N656        C657   1.372       .  A
C657        N658   1.350       .  A
C657        C836   1.443       .  S
N658        C659   1.346       .  A
C659        N660   1.349       .  A
C659        C792   1.415       .  S
C661        N662   1.361       .  A
C661        N666   1.355       .  A
C661        C872   1.433       .  S
N662        C663   1.360       .  A
C663        N664   1.353       .  A
C663        C841   1.428       .  S
N664        C665   1.350       .  A
C665        N666   1.353       .  A
C665        C788   1.425       .  S
C667        N668   1.351       .  A
C667        N672   1.371       .  A
C667        C884   1.451       .  S
N668        C669   1.348       .  A
C669        N670   1.357       .  A
C669        C781   1.432       .  S
N670        C671   1.361       .  A
C671        N672   1.374       .  A
C671        C848   1.459       .  S
O673       Zr709   2.441   1_565  S
O673        C684   1.292       .  A
O674       Zr708   2.408       .  S
O674        C685   1.285   1_554  A
O675       Zr681   2.436   1_565  S
O675        C686   1.291   1_565  A
O676       Zr681   2.429   1_564  S
O676        C687   1.288       .  A
O677       Zr711   2.437   1_465  S
O677        C687   1.291       .  A
O678       Zr710   2.432       .  S
O678        C686   1.289       .  A
O679       Zr681   2.442   1_565  S
O679        C685   1.292   1_565  A
O680       Zr681   2.419   1_565  S
O680        C684   1.287   1_455  A
Zr681       O682   2.333   1_556  S
Zr681       O683   2.329       .  S
Zr681       O691   2.345   1_455  S
Zr681       O689   2.328       .  S
O682       Zr708   2.330       .  S
O682       Zr711   2.331   1_455  S
O683       Zr709   2.318   1_455  S
O683       Zr710   2.338       .  S
C684        C972   1.422       .  S
C685        C956   1.421   1_546  S
C686        C929   1.428       .  S
C687        C916   1.427       .  S
H688        O689   0.966       .  S
O689       Zr708   2.347   1_556  S
O689       Zr710   2.342       .  S
H690        O691   0.964   1_564  S
O691       Zr709   2.334       .  S
O691       Zr711   2.319   1_556  S
O692       Zr708   2.429       .  S
O692        C715   1.289       .  A
O693       Zr709   2.408       .  S
O693        C716   1.285       .  A
O694       Zr710   2.452       .  S
O694        C717   1.294       .  A
O695       Zr711   2.409   1_455  S
O695        C718   1.285       .  A
O696       Zr711   2.428       .  S
O696        C719   1.289       .  A
O697       Zr710   2.431       .  S
O697        C720   1.289   1_455  A
O698       Zr712   2.421   1_556  S
O698        C721   1.287   1_655  A
O699       Zr712   2.436       .  S
O699        C722   1.291       .  A
O700       Zr710   2.446       .  S
O700        C721   1.293       .  A
O701       Zr711   2.413       .  S
O701        C722   1.286       .  A
O702       Zr708   2.403   1_556  S
O702        C717   1.283       .  A
O703       Zr709   2.425       .  S
O703        C720   1.289       .  A
O704       Zr709   2.426   1_554  S
O704        C719   1.288       .  A
O705       Zr708   2.436       .  S
O705        C718   1.290       .  A
O706       Zr712   2.433   1_455  S
O706        C715   1.289       .  A
O707       Zr712   2.442       .  S
O707        C716   1.292   1_554  A
Zr708       O714   2.327   1_554  S
Zr708       O726   2.318       .  S
Zr709       O713   2.330   1_556  S
Zr709       O724   2.352       .  S
Zr710       O714   2.324       .  S
Zr710       O724   2.351   1_455  S
Zr711       O713   2.324       .  S
Zr711       O726   2.348   1_655  S
Zr712       O713   2.324       .  S
Zr712       O714   2.333   1_654  S
Zr712       O726   2.344   1_655  S
Zr712       O724   2.353   1_554  S
C715        C856   1.428       .  S
C716        C961   1.421       .  S
C717        C924   1.421       .  S
C718        C880   1.420       .  S
C719        C905   1.425       .  S
C720        C948   1.426       .  S
C721        C937   1.428       .  S
C722        C896   1.417       .  S
H723        O724   0.966       .  S
H725        O726   0.966       .  S
O727       Zr763   2.440       .  S
O727        C738   1.292       .  A
O728       Zr762   2.405       .  S
O728        C739   1.284       .  A
O729       Zr735   2.463       .  S
O729        C740   1.296       .  A
O730       Zr735   2.436       .  S
O730        C741   1.290       .  A
O731       Zr765   2.437       .  S
O731        C741   1.291       .  A
O732       Zr764   2.402       .  S
O732        C740   1.283       .  A
O733       Zr735   2.451       .  S
O733        C739   1.294       .  A
O734       Zr735   2.434       .  S
O734        C738   1.290       .  A
Zr735       O736   2.345       .  S
Zr735       O737   2.330       .  S
Zr735       O745   2.351       .  S
Zr735       O743   2.333       .  S
O736       Zr762   2.345       .  S
O736       Zr765   2.342       .  S
O737       Zr763   2.322       .  S
O737       Zr764   2.338       .  S
C738        C828   1.428       .  S
C739        C820   1.421       .  S
C740        C824   1.426       .  S
C741        C816   1.429       .  S
H742        O743   0.964       .  S
O743       Zr762   2.349       .  S
O743       Zr764   2.342       .  S
H744        O745   0.964       .  S
O745       Zr763   2.339       .  S
O745       Zr765   2.317       .  S
O746       Zr762   2.439       .  S
O746        C769   1.291       .  A
O747       Zr763   2.431       .  S
O747        C770   1.289       .  A
O748       Zr764   2.437       .  S
O748        C771   1.290       .  A
O749       Zr765   2.398       .  S
O749        C772   1.283       .  A
O750       Zr765   2.438       .  S
O750        C773   1.291       .  A
O751       Zr764   2.432       .  S
O751        C774   1.289       .  A
O752       Zr766   2.421       .  S
O752        C775   1.287       .  A
O753       Zr766   2.439       .  S
O753        C776   1.291       .  A
O754       Zr764   2.436       .  S
O754        C775   1.290       .  A
O755       Zr765   2.422       .  S
O755        C776   1.287       .  A
O756       Zr762   2.435       .  S
O756        C771   1.289       .  A
O757       Zr763   2.431       .  S
O757        C774   1.290       .  A
O758       Zr763   2.419       .  S
O758        C773   1.286       .  A
O759       Zr762   2.446       .  S
O759        C772   1.293       .  A
O760       Zr766   2.403       .  S
O760        C769   1.283       .  A
O761       Zr766   2.423       .  S
O761        C770   1.288       .  A
Zr762       O768   2.333       .  S
Zr762       O780   2.326       .  S
Zr763       O767   2.330       .  S
Zr763       O778   2.343       .  S
Zr764       O768   2.321       .  S
Zr764       O778   2.339       .  S
Zr765       O767   2.322       .  S
Zr765       O780   2.342       .  S
Zr766       O767   2.317       .  S
Zr766       O768   2.341       .  S
Zr766       O780   2.330       .  S
Zr766       O778   2.339       .  S
C769        C812   1.418       .  S
C770        C801   1.424       .  S
C771        C784   1.428       .  S
C772        C789   1.416       .  S
C773        C793   1.427       .  S
C774        C785   1.428       .  S
C775        C800   1.424       .  S
C776        C808   1.424       .  S
H777        O778   0.966       .  S
H779        O780   0.964       .  S
C781        C782   1.203       .  T
C782        C783   1.407       .  S
C783        C784   1.202       .  T
C785        C786   1.201       .  T
C786        C787   1.404       .  S
C787        C788   1.200       .  T
C789        C790   1.194       .  T
C790        C791   1.393       .  S
C791        C792   1.193       .  T
C793        C794   1.202       .  T
C794        C795   1.407       .  S
C795        C796   1.203       .  T
C797        C798   1.199       .  T
C798        C799   1.401       .  S
C799        C800   1.199       .  T
C801        C802   1.199       .  T
C802        C803   1.402       .  S
C803        C804   1.199       .  T
C805        C806   1.202       .  T
C806        C807   1.405       .  S
C807        C808   1.200       .  T
C809        C810   1.198       .  T
C810        C811   1.400       .  S
C811        C812   1.197       .  T
C813        C814   1.201       .  T
C814        C815   1.404       .  S
C815        C816   1.202       .  T
C817        C818   1.196       .  T
C818        C819   1.397       .  S
C819        C820   1.197       .  T
C821        C822   1.200       .  T
C822        C823   1.405       .  S
C823        C824   1.201       .  T
C825        C826   1.203       .  T
C826        C827   1.409       .  S
C827        C828   1.203       .  T
C829        C830   1.212       .  T
C831        C832   1.213       .  T
C833        C834   1.215       .  T
C835        C836   1.213       .  T
C837        C838   1.212       .  T
C839        C840   1.211       .  T
C841        C842   1.202       .  T
C843        C844   1.210       .  T
C845        C846   1.216       .  T
C847        C848   1.220       .  T
C849        C850   1.212       .  T
C851        C852   1.212       .  T
C853        C854   1.203       .  T
C854        C855   1.407       .  S
C855        C856   1.202       .  T
C857        C858   1.216       .  T
C859        C860   1.217       .  T
C861        C862   1.212       .  T
C863        C864   1.218       .  T
C865        C866   1.214       .  T
C867        C868   1.223       .  T
C869        C870   1.213       .  T
C871        C872   1.205       .  T
C873        C874   1.211       .  T
C875        C876   1.214       .  T
C877        C878   1.196       .  T
C878        C879   1.397       .  S
C879        C880   1.197       .  T
C881        C882   1.217       .  T
C883        C884   1.217       .  T
C885        C886   1.220       .  T
C887        C888   1.209       .  T
C889        C890   1.216       .  T
C891        C892   1.218       .  T
C893        C894   1.197       .  T
C894        C895   1.398       .  S
C895        C896   1.196       .  T
C897        C898   1.219       .  T
C899        C900   1.221       .  T
C901        C902   1.216       .  T
C903        C904   1.222       .  T
C905        C906   1.201       .  T
C906        C907   1.406       .  S
C907        C908   1.202       .  T
C909        C910   1.216       .  T
C911        C912   1.217       .  T
C913        C914   1.200       .  T
C914        C915   1.403       .  S
C915        C916   1.200       .  T
C917        C918   1.218       .  T
C919        C920   1.214       .  T
C921        C922   1.200       .  T
C922        C923   1.402       .  S
C923        C924   1.199       .  T
C925        C926   1.218       .  T
C927        C928   1.210       .  T
C929        C930   1.202   1_545  T
C930        C931   1.408       .  S
C931        C932   1.203       .  T
C933        C934   1.213       .  T
C935        C936   1.214       .  T
C937        C938   1.201       .  T
C938        C939   1.403       .  S
C939        C940   1.200       .  T
C941        C942   1.215       .  T
C943        C944   1.212       .  T
C945        C946   1.200       .  T
C946        C947   1.403       .  S
C947        C948   1.200       .  T
C949        C950   1.207       .  T
C951        C952   1.205       .  T
C953        C954   1.196       .  T
C954        C955   1.397       .  S
C955        C956   1.197       .  T
C957        C958   1.219       .  T
C959        C960   1.216       .  T
C961        C962   1.197       .  T
C962        C963   1.397   1_556  S
C963        C964   1.196       .  T
C965        C966   1.220       .  T
C967        C968   1.211       .  T
C969        C970   1.201       .  T
C970        C971   1.404       .  S
C971        C972   1.200       .  T
