geometry optimzed in LAMMPS
_audit_creation_date              2020-12-01 
_audit_creation_method            'lammps2cif' 
_symmetry_space_group_name_H-M    'P1' 
_symmetry_Int_Tables_number       1 
_symmetry_cell_setting            triclinic 
loop_ 
_symmetry_equiv_pos_as_xyz 
  x,y,z 
_cell_length_a                    34.11761203 
_cell_length_b                    33.850541898153836 
_cell_length_c                    66.91957375439513 
_cell_angle_alpha                 90.03589584256736 
_cell_angle_beta                  90.182442859309 
_cell_angle_gamma                 90.07797597891962 
loop_ 
_atom_site_label 
_atom_site_type_symbol 
_atom_site_fract_x 
_atom_site_fract_y 
_atom_site_fract_z 
_atom_site_charge 
O1          O  0.86295849  0.65032212  0.81740866    -0.57000
C2          C  0.83292561  0.70423248  0.76664032     0.75600
O3          O  0.95211614  0.68320383  0.76960973    -0.58100
C4          C  0.88951514  0.62871634  0.82491103     0.75600
C5          C  0.88723896  0.58018650  0.76332248     0.78000
Cd6        Cd  0.89193307  0.65438074  0.78408377     1.37500
O7          O  0.82895253  0.69004734  0.78401469    -0.57000
O8          O  0.85721876  0.59728065  0.77017238    -0.55800
C9          C  0.95900689  0.70579794  0.78430824     0.78000
O10         O  0.91946727  0.59815878  0.76568864    -0.58200
O11         O  0.86419400  0.69520352  0.75762856    -0.56600
O12         O  0.91662348  0.61828449  0.81320072    -0.56600
O13         O  0.93471444  0.70465263  0.79850694    -0.55800
O14         O  0.18946705  0.85342247  0.82103055    -0.57000
C15         C  0.21852974  0.80851059  0.76651636     0.75600
O16         O  0.10230708  0.83323712  0.77127509    -0.58100
C17         C  0.16739015  0.87970620  0.82840542     0.75600
C18         C  0.16079700  0.93352429  0.76600655     0.78000
Cd19       Cd  0.16262480  0.85894874  0.78656933     1.37500
O20         O  0.22700468  0.82519802  0.78294932    -0.57000
O21         O  0.19302510  0.91745966  0.77075203    -0.55800
C22         C  0.09367179  0.81002372  0.78538003     0.78000
O23         O  0.13007990  0.91486625  0.77069624    -0.58200
O24         O  0.18491464  0.81598681  0.75956550    -0.56600
O25         O  0.14538313  0.89750952  0.81613499    -0.56600
O26         O  0.11665222  0.81012359  0.80024341    -0.55800
O27         O  0.63051958  0.89400844  0.73176122    -0.57000
C28         C  0.58936365  0.79587037  0.70693818     0.75600
O29         O  0.68020920  0.84061025  0.67302064    -0.58100
C30         C  0.65727292  0.91955010  0.72961662     0.75600
C31         C  0.71735411  0.80245820  0.72684893     0.78000
Cd32       Cd  0.65661087  0.84670687  0.70747785     1.37500
O33         O  0.58814194  0.83052475  0.71400891    -0.57000
O34         O  0.68313699  0.80511184  0.73394726    -0.55800
C35         C  0.65632793  0.86512966  0.66557948     0.78000
O36         O  0.72362062  0.82117945  0.71079966    -0.58200
O37         O  0.62226145  0.78418377  0.70061944    -0.56600
O38         O  0.68415658  0.91083652  0.71739043    -0.56600
O39         O  0.63431420  0.88281119  0.67782435    -0.55800
O40         O  0.45161466  0.66078404  0.71381960    -0.57000
C41         C  0.37642723  0.57510388  0.72788992     0.75600
O42         O  0.32327162  0.69229865  0.70930538    -0.58100
C43         C  0.45203809  0.69551575  0.70687903     0.75600
C44         C  0.37411530  0.62919481  0.66536489     0.78000
Cd45       Cd  0.38132314  0.64923699  0.70709934     1.37500
O46         O  0.40768814  0.59515410  0.72717481    -0.57000
O47         O  0.40358052  0.61962695  0.67575390    -0.55800
C48         C  0.32747293  0.70101767  0.72759653     0.78000
O49         O  0.34701043  0.64697109  0.67454274    -0.58200
O50         O  0.34695686  0.58978282  0.71911697    -0.56600
O51         O  0.41967002  0.70868311  0.70049787    -0.56600
O52         O  0.35625354  0.68505829  0.73640621    -0.55800
O53         O  0.81043539  0.31274419  0.70852375    -0.57000
C54         C  0.86543331  0.37219752  0.66401558     0.75600
O55         O  0.90273455  0.40451618  0.72432459    -0.58100
C56         C  0.81472731  0.30244590  0.72656527     0.75600
C57         C  0.93986789  0.30124623  0.70711177     0.78000
Cd58       Cd  0.87167659  0.35105460  0.70586648     1.37500
O59         O  0.83967491  0.35134470  0.67257499    -0.57000
O60         O  0.91035384  0.29297410  0.69642240    -0.55800
C61         C  0.87292366  0.42650406  0.72552338     0.78000
O62         O  0.93803937  0.33297087  0.71702967    -0.58200
O63         O  0.89318977  0.38420900  0.67500940    -0.56600
O64         O  0.84489556  0.31586090  0.73528442    -0.56600
O65         O  0.84165989  0.41300911  0.71787342    -0.55800
O66         O  0.17485646  0.15792544  0.66798026    -0.57000
C67         C  0.20389926  0.20480812  0.72292227     0.75600
O68         O  0.07817419  0.16787955  0.70950402    -0.58100
C69         C  0.14806808  0.13660387  0.66044148     0.75600
C70         C  0.15482137  0.08230162  0.72316259     0.78000
Cd71       Cd  0.14773507  0.15619191  0.70244129     1.37500
O72         O  0.20762004  0.19669301  0.70452090    -0.57000
O73         O  0.18190114  0.09515613  0.71203128    -0.55800
C74         C  0.07907931  0.20451399  0.70582846     0.78000
O75         O  0.12480993  0.10400939  0.72463886    -0.58200
O76         O  0.17508414  0.18910800  0.73171964    -0.56600
O77         O  0.12233976  0.12429006  0.67243710    -0.56600
O78         O  0.11163014  0.21856574  0.70030831    -0.55800
O79         O  0.44413108  0.33188017  0.78133904    -0.57000
C80         C  0.37565939  0.42219335  0.76681737     0.75600
O81         O  0.31010341  0.31638040  0.78186131    -0.58100
C82         C  0.44192647  0.29563468  0.78574157     0.75600
C83         C  0.37122597  0.36624236  0.82890142     0.78000
Cd84       Cd  0.37495970  0.34712779  0.78674753     1.37500
O85         O  0.40455548  0.39886153  0.76622755    -0.57000
O86         O  0.39512553  0.38226387  0.81704606    -0.55800
C87         C  0.31671273  0.30448113  0.76421656     0.78000
O88         O  0.34795386  0.34130825  0.82116949    -0.58200
O89         O  0.34581492  0.41015360  0.77623661    -0.56600
O90         O  0.40833849  0.28274961  0.79033889    -0.56600
O91         O  0.34974878  0.31355986  0.75704119    -0.55800
O92         O  0.58172537  0.16286601  0.77547687    -0.57000
C93         C  0.65561149  0.07303853  0.76776522     0.75600
O94         O  0.71117972  0.18547143  0.78561964    -0.58100
C95         C  0.57843150  0.19433238  0.78554752     0.75600
C96         C  0.64969753  0.12685831  0.82930604     0.78000
Cd97       Cd  0.64891716  0.14796192  0.78749358     1.37500
O98         O  0.62312988  0.09034665  0.77003363    -0.57000
O99         O  0.62466127  0.11368489  0.81708781    -0.55800
C100        C  0.70542220  0.19913433  0.76823843     0.78000
O101        O  0.67575641  0.14925744  0.82201656    -0.58200
O102        O  0.68568118  0.09091939  0.77422264    -0.56600
O103        O  0.60782263  0.20413496  0.79601627    -0.56600
O104        O  0.67379290  0.18863787  0.75980391    -0.55800
O105        O  0.16383267  0.35895927  0.01895090    -0.57000
C106        C  0.06043870  0.31875097  0.03575184     0.75600
O107        O  0.09788439  0.41122713  0.07034887    -0.58100
C108        C  0.18336727  0.39061272  0.01719798     0.75600
C109        C  0.06173571  0.44673001  0.01435038     0.78000
Cd110      Cd  0.10785602  0.38894415  0.03580232     1.37500
O111        O  0.08659788  0.32425519  0.02266694    -0.57000
O112        O  0.06948704  0.41304452  0.00726738    -0.55800
C113        C  0.12727058  0.39331702  0.07755136     0.78000
O114        O  0.07578777  0.45398833  0.03151703    -0.58200
O115        O  0.05632528  0.34573209  0.04862103    -0.56600
O116        O  0.16761874  0.42158012  0.02408606    -0.56600
O117        O  0.14866599  0.37533838  0.06512873    -0.55800
O118        O  0.85286809  0.14303343  0.01635223    -0.57000
C119        C  0.95923095  0.18168765  0.03422510     0.75600
O120        O  0.90707622  0.08604082  0.06882249    -0.58100
C121        C  0.83268215  0.11176716  0.01502850     0.75600
C122        C  0.95712383  0.05556535  0.01563343     0.78000
Cd123      Cd  0.90804898  0.11395254  0.03472071     1.37500
O124        O  0.93451025  0.17568020  0.02039476    -0.57000
O125        O  0.94750057  0.08770310  0.00735588    -0.55800
C126        C  0.88675714  0.11358612  0.07638004     0.78000
O127        O  0.94333829  0.04989441  0.03295081    -0.58200
O128        O  0.96006203  0.15656693  0.04818325    -0.56600
O129        O  0.84799762  0.08091895  0.02231390    -0.56600
O130        O  0.87506962  0.13988818  0.06436197    -0.55800
O131        O  0.11441983  0.92233338  0.92059573    -0.57000
C132        C  0.06147066  0.94749700  0.97391644     0.75600
O133        O  0.08563341  0.82845799  0.96646017    -0.58100
C134        C  0.13702124  0.89681928  0.91294319     0.75600
C135        C  0.18552435  0.88997356  0.97441117     0.78000
Cd136      Cd  0.11138058  0.89098931  0.95377980     1.37500
O137        O  0.07630426  0.95459630  0.95696703    -0.57000
O138        O  0.17123070  0.92189032  0.96777092    -0.55800
C139        C  0.06075473  0.82288398  0.95268801     0.78000
O140        O  0.16474090  0.85943072  0.97192270    -0.58200
O141        O  0.07047174  0.91460393  0.98158181    -0.56600
O142        O  0.14841531  0.86952602  0.92446665    -0.56600
O143        O  0.05983377  0.84852782  0.93894339    -0.55800
O144        O  0.91834966  0.58324544  0.91929840    -0.57000
C145        C  0.96126790  0.56003077  0.97361579     0.75600
O146        O  0.93714238  0.67762686  0.96674895    -0.58100
C147        C  0.89569443  0.60725398  0.91046049     0.75600
C148        C  0.83442809  0.61424520  0.97076267     0.78000
Cd149      Cd  0.91151999  0.61523423  0.95251754     1.37500
O150        O  0.94898293  0.55323592  0.95606362    -0.57000
O151        O  0.85140516  0.58274110  0.96540872    -0.55800
C152        C  0.95904577  0.68578161  0.95208189     0.78000
O153        O  0.85326438  0.64583634  0.96768727    -0.58200
O154        O  0.94991998  0.59207406  0.98135917    -0.56600
O155        O  0.87930375  0.63285619  0.92135824    -0.56600
O156        O  0.95901114  0.66124273  0.93787162    -0.55800
O157        O  0.40456017  0.91249413  0.07137074    -0.57000
C158        C  0.45818117  0.93965560  0.01731676     0.75600
O159        O  0.42454202  0.81475504  0.02835689    -0.58100
C160        C  0.38582390  0.88414957  0.07917818     0.75600
C161        C  0.33609576  0.88714993  0.01495001     0.78000
Cd162      Cd  0.40812890  0.88316887  0.03739677     1.37500
O163        O  0.44253490  0.94767225  0.03399384    -0.57000
O164        O  0.34998568  0.91692474  0.02394771    -0.55800
C165        C  0.45754675  0.81477363  0.03705439     0.78000
O166        O  0.35570189  0.85558400  0.01633697    -0.58200
O167        O  0.45048957  0.90597113  0.01011909    -0.56600
O168        O  0.37635949  0.85648441  0.06743113    -0.56600
O169        O  0.46745766  0.84645554  0.04577791    -0.55800
O170        O  0.61191285  0.58666082  0.06906961    -0.57000
C171        C  0.56376034  0.55533231  0.01530542     0.75600
O172        O  0.59810308  0.68364856  0.02950006    -0.58100
C173        C  0.63536052  0.61185994  0.07638135     0.75600
C174        C  0.68396290  0.61065506  0.01126327     0.78000
Cd175      Cd  0.61309148  0.61332823  0.03461616     1.37500
O176        O  0.58122029  0.54803272  0.03163334    -0.57000
O177        O  0.67445211  0.58291539  0.02296473    -0.55800
C178        C  0.56315584  0.68138500  0.03568819     0.78000
O179        O  0.66025054  0.63930160  0.01015351    -0.58200
O180        O  0.57001804  0.58908077  0.00783794    -0.56600
O181        O  0.64957516  0.63633810  0.06412109    -0.56600
O182        O  0.55157409  0.64765560  0.04123570    -0.55800
O183        O  0.35573468  0.35708356  0.97666725    -0.57000
C184        C  0.45543951  0.31668545  0.95764175     0.75600
O185        O  0.41290171  0.40988518  0.92158433    -0.58100
C186        C  0.33451265  0.38758051  0.97770575     0.75600
C187        C  0.45759409  0.44530158  0.97574341     0.78000
Cd188      Cd  0.40799103  0.38663893  0.95666896     1.37500
O189        O  0.43116847  0.32416920  0.97139179    -0.57000
O190        O  0.45469466  0.41022004  0.98200253    -0.55800
C191        C  0.38705939  0.38657572  0.91468340     0.78000
O192        O  0.43712245  0.45360256  0.96049684    -0.58200
O193        O  0.45754364  0.34157430  0.94359377    -0.56600
O194        O  0.34770891  0.41814209  0.96913137    -0.56600
O195        O  0.36985867  0.36518207  0.92741431    -0.55800
O196        O  0.65859533  0.13947243  0.97632291    -0.57000
C197        C  0.55544749  0.17902834  0.95588042     0.75600
O198        O  0.60580135  0.08370955  0.92185325    -0.58100
C199        C  0.67912111  0.10839464  0.97723297     0.75600
C200        C  0.55458402  0.05388345  0.97515575     0.78000
Cd201      Cd  0.60528860  0.11094264  0.95601361     1.37500
O202        O  0.58054203  0.17347045  0.96959039    -0.57000
O203        O  0.55770889  0.08925634  0.98093932    -0.55800
C204        C  0.62812895  0.10999999  0.91460525     0.78000
O205        O  0.57529547  0.04433533  0.96022344    -0.58200
O206        O  0.55369497  0.15317315  0.94224304    -0.56600
O207        O  0.66489021  0.07834584  0.96863332    -0.56600
O208        O  0.64037465  0.13595697  0.92670460    -0.55800
O209        O  0.35416650  0.63653932  0.51311032    -0.57000
C210        C  0.45324585  0.67975958  0.53609776     0.75600
O211        O  0.40581487  0.58327053  0.57114677    -0.58100
C212        C  0.32870422  0.61002144  0.51604867     0.75600
C213        C  0.44720115  0.55209240  0.51751536     0.78000
Cd214      Cd  0.40182295  0.61209299  0.53748340     1.37500
O215        O  0.41711105  0.68292488  0.53207000    -0.57000
O216        O  0.43452511  0.58249012  0.50862089    -0.55800
C217        C  0.38459389  0.60875079  0.57969665     0.78000
O218        O  0.43756604  0.54874717  0.53569011    -0.58200
O219        O  0.46476821  0.64564626  0.54091121    -0.56600
O220        O  0.33750463  0.58385386  0.52880985    -0.56600
O221        O  0.36963178  0.63472066  0.56844086    -0.55800
O222        O  0.66138292  0.85627702  0.51989302    -0.57000
C223        C  0.55595570  0.81594836  0.53670100     0.75600
O224        O  0.60712337  0.91200262  0.57306006    -0.58100
C225        C  0.68064792  0.88805356  0.51824826     0.75600
C226        C  0.55727277  0.93880661  0.51804060     0.78000
Cd227      Cd  0.60672053  0.88340674  0.53877595     1.37500
O228        O  0.59032227  0.81498356  0.52963859    -0.57000
O229        O  0.56725342  0.90622752  0.51029461    -0.55800
C230        C  0.62745189  0.88463952  0.58074211     0.78000
O231        O  0.57131298  0.94605861  0.53521923    -0.58200
O232        O  0.54550902  0.84777089  0.54502137    -0.56600
O233        O  0.66524901  0.91855360  0.52583072    -0.56600
O234        O  0.63841627  0.85784367  0.56888075    -0.55800
O235        O  0.59762086  0.41502547  0.42060296    -0.57000
C236        C  0.54993388  0.44304989  0.47556587     0.75600
O237        O  0.58623920  0.31673799  0.46113926    -0.58100
C238        C  0.62074890  0.38967351  0.41327122     0.75600
C239        C  0.67247499  0.38897206  0.47601303     0.78000
Cd240      Cd  0.59898648  0.38680396  0.45500145     1.37500
O241        O  0.56558386  0.45084400  0.45887468    -0.57000
O242        O  0.65968875  0.41885488  0.46669361    -0.55800
C243        C  0.55085381  0.31742930  0.45545352     0.78000
O244        O  0.65026980  0.35906681  0.47638877    -0.58200
O245        O  0.55823341  0.40969953  0.48298957    -0.56600
O246        O  0.63356668  0.36405171  0.42531071    -0.56600
O247        O  0.53788374  0.35027394  0.44935247    -0.55800
O248        O  0.43570708  0.03831476  0.45937736    -0.57000
C249        C  0.39311236  0.10255024  0.41212336     0.75600
O250        O  0.35460870  0.13583302  0.47366127    -0.58100
C251        C  0.45398668  0.04652382  0.47534703     0.75600
C252        C  0.45708080  0.17490674  0.45603268     0.78000
Cd253      Cd  0.40821646  0.10541574  0.45464364     1.37500
O254        O  0.41884381  0.08094271  0.42021625    -0.57000
O255        O  0.46758938  0.14359034  0.44728812    -0.55800
C256        C  0.33328534  0.10532869  0.47492340     0.78000
O257        O  0.42386134  0.17399686  0.46438732    -0.58200
O258        O  0.37322346  0.12362953  0.42391921    -0.56600
O259        O  0.45002955  0.08148214  0.48173093    -0.56600
O260        O  0.34701507  0.07432558  0.46700875    -0.55800
O261        O  0.85345856  0.85434024  0.47812751    -0.57000
C262        C  0.95425700  0.81325154  0.45877696     0.75600
O263        O  0.91300615  0.90974291  0.42350962    -0.58100
C264        C  0.83152579  0.88441225  0.47837551     0.75600
C265        C  0.95463870  0.94417785  0.47545061     0.78000
Cd266      Cd  0.90580369  0.88346306  0.45771773     1.37500
O267        O  0.94091034  0.82847406  0.47458290    -0.57000
O268        O  0.94287507  0.91436265  0.48505257    -0.55800
C269        C  0.88577097  0.88921406  0.41576341     0.78000
O270        O  0.94340142  0.94625324  0.45745041    -0.58200
O271        O  0.94445937  0.82997054  0.44266825    -0.56600
O272        O  0.84400256  0.91418367  0.46888171    -0.56600
O273        O  0.86686023  0.86734118  0.42769934    -0.55800
O274        O  0.15856605  0.63821981  0.47339378    -0.57000
C275        C  0.05515550  0.67571157  0.45638577     0.75600
O276        O  0.09869719  0.58282038  0.42047440    -0.58100
C277        C  0.17725171  0.60655930  0.47654796     0.75600
C278        C  0.05242401  0.55032966  0.47394884     0.78000
Cd279      Cd  0.10402324  0.60716927  0.45516227     1.37500
O280        O  0.08165495  0.67030985  0.46942769    -0.57000
O281        O  0.05209169  0.58681796  0.47791430    -0.55800
C282        C  0.12306493  0.60692010  0.41307191     0.78000
O283        O  0.07775100  0.53934349  0.46129156    -0.58200
O284        O  0.05185798  0.64936393  0.44308618    -0.56600
O285        O  0.16152505  0.57511251  0.47014877    -0.56600
O286        O  0.14036318  0.62925125  0.42541508    -0.55800
O287        O  0.90580317  0.41619250  0.57053441    -0.57000
C288        C  0.94308561  0.44634878  0.51458433     0.75600
O289        O  0.91176879  0.31777267  0.53250923    -0.58100
C290        C  0.88065315  0.39377659  0.57855758     0.75600
C291        C  0.82426791  0.39149260  0.51512818     0.78000
Cd292      Cd  0.89788957  0.38900023  0.53623254     1.37500
O293        O  0.93003171  0.45385446  0.53189537    -0.57000
O294        O  0.83613654  0.42009799  0.52572377    -0.55800
C295        C  0.94835697  0.32069413  0.53532459     0.78000
O296        O  0.84685150  0.36190976  0.51416301    -0.58200
O297        O  0.93374063  0.41321367  0.50721312    -0.56600
O298        O  0.86301405  0.37043636  0.56683683    -0.56600
O299        O  0.96140662  0.35510314  0.53846199    -0.55800
O300        O  0.07392669  0.05310767  0.53067555    -0.57000
C301        C  0.12681458  0.11841332  0.57497230     0.75600
O302        O  0.15856509  0.14540684  0.51207285    -0.58100
C303        C  0.05701708  0.05902101  0.51408214     0.75600
C304        C  0.05407216  0.18663709  0.53318808     0.78000
Cd305      Cd  0.10518257  0.11863514  0.53315904     1.37500
O306        O  0.10382165  0.09259911  0.56779330    -0.57000
O307        O  0.04647458  0.15579241  0.54310954    -0.55800
C308        C  0.17998332  0.11491399  0.51267362     0.78000
O309        O  0.08524917  0.18582615  0.52296789    -0.58200
O310        O  0.14024175  0.14317234  0.56264452    -0.56600
O311        O  0.06324218  0.09235337  0.50612895    -0.56600
O312        O  0.16618589  0.08578594  0.52220054    -0.55800
O313        O  0.14567934  0.39683692  0.23195235    -0.57000
C314        C  0.09031005  0.30151140  0.20586372     0.75600
O315        O  0.18635246  0.35777771  0.17008079    -0.58100
C316        C  0.15856322  0.42755726  0.22346341     0.75600
C317        C  0.22102485  0.30692702  0.22257034     0.78000
Cd318      Cd  0.15825864  0.35154806  0.20405802     1.37500
O319        O  0.08921148  0.33702185  0.21176521    -0.57000
O320        O  0.19104512  0.31852222  0.23192618    -0.55800
C321        C  0.15449200  0.36923543  0.16215220     0.78000
O322        O  0.22286334  0.31689142  0.20433741    -0.58200
O323        O  0.12300681  0.28921378  0.19958393    -0.56600
O324        O  0.17219760  0.42301834  0.20607706    -0.56600
O325        O  0.12543827  0.37230544  0.17373298    -0.55800
O326        O  0.90987311  0.10165547  0.22445277    -0.57000
C327        C  0.95090595  0.20398904  0.20387028     0.75600
O328        O  0.85283974  0.15784171  0.17013149    -0.58100
C329        C  0.87845436  0.08215799  0.22635861     0.75600
C330        C  0.82804556  0.20475174  0.22540067     0.78000
Cd331      Cd  0.88218467  0.15473504  0.20407212     1.37500
O332        O  0.95139328  0.16952187  0.21117368    -0.57000
O333        O  0.86001538  0.19352357  0.23315158    -0.55800
C334        C  0.87528676  0.13249836  0.16227180     0.78000
O335        O  0.82083023  0.19174240  0.20801649    -0.58200
O336        O  0.91883125  0.21513910  0.19627633    -0.56600
O337        O  0.84826611  0.09666804  0.21811661    -0.56600
O338        O  0.89972767  0.11652803  0.17394724    -0.55800
O339        O  0.35392676  0.15007969  0.31838896    -0.57000
C340        C  0.33201453  0.20594204  0.26457327     0.75600
O341        O  0.42380635  0.21387314  0.29365883    -0.58100
C342        C  0.38110237  0.13093319  0.32690292     0.75600
C343        C  0.38038302  0.07920555  0.26471319     0.78000
Cd344      Cd  0.38640730  0.15416420  0.28525305     1.37500
O345        O  0.32842169  0.19741807  0.28290369    -0.57000
O346        O  0.35121576  0.09491947  0.27320940    -0.55800
C347        C  0.45514659  0.20388872  0.28501121     0.78000
O348        O  0.41208268  0.09866899  0.26542158    -0.58200
O349        O  0.36030118  0.18953539  0.25562438    -0.56600
O350        O  0.40995111  0.12201386  0.31600002    -0.56600
O351        O  0.45509970  0.17031646  0.27665579    -0.55800
O352        O  0.68650985  0.35510775  0.32184400    -0.57000
C353        C  0.72102193  0.30786382  0.26833775     0.75600
O354        O  0.59130278  0.33978876  0.27968383    -0.58100
C355        C  0.65613917  0.37109166  0.32917825     0.75600
C356        C  0.66350223  0.42950907  0.26621472     0.78000
Cd357      Cd  0.66065343  0.35472477  0.28709221     1.37500
O358        O  0.72722018  0.32372807  0.28524210    -0.57000
O359        O  0.67832527  0.42537082  0.28342694    -0.55800
C360        C  0.59297144  0.30411389  0.28534202     0.78000
O361        O  0.64756344  0.39921092  0.25868407    -0.58200
O362        O  0.68797187  0.31468203  0.26052092    -0.56600
O363        O  0.62930490  0.38007541  0.31692708    -0.56600
O364        O  0.62583314  0.29232979  0.29172837    -0.55800
O365        O  0.30980786  0.82016803  0.21231868    -0.57000
C366        C  0.36814944  0.86375084  0.16462712     0.75600
O367        O  0.40400424  0.89975191  0.22870943    -0.58100
C368        C  0.31762598  0.80336180  0.22876066     0.75600
C369        C  0.44637414  0.80149152  0.20667872     0.78000
Cd370      Cd  0.37558748  0.84867996  0.20704537     1.37500
O371        O  0.34807036  0.83727061  0.17314863    -0.57000
O372        O  0.41301795  0.78701452  0.20276966    -0.55800
C373        C  0.37605143  0.92409857  0.22734997     0.78000
O374        O  0.44691835  0.83785725  0.21099484    -0.58200
O375        O  0.39017641  0.88396895  0.17588687    -0.56600
O376        O  0.35209535  0.80837777  0.23531825    -0.56600
O377        O  0.34676075  0.91287430  0.21715012    -0.55800
O378        O  0.68337533  0.65710625  0.16959591    -0.57000
C379        C  0.71324432  0.70081582  0.22382224     0.75600
O380        O  0.58431505  0.66498976  0.20819862    -0.58100
C381        C  0.65773696  0.63512394  0.16151230     0.75600
C382        C  0.66060845  0.58020678  0.22538496     0.78000
Cd383      Cd  0.65503969  0.65370413  0.20364511     1.37500
O384        O  0.68391710  0.68607856  0.23255815    -0.57000
O385        O  0.68104268  0.58671654  0.20997323    -0.55800
C386        C  0.58499700  0.70173622  0.20481887     0.78000
O387        O  0.63773558  0.60760028  0.23070987    -0.58200
O388        O  0.71662144  0.69292695  0.20538356    -0.56600
O389        O  0.63215193  0.62081334  0.17308876    -0.56600
O390        O  0.61826576  0.71621950  0.20090917    -0.55800
O391        O  0.94009862  0.83826863  0.27779375    -0.57000
C392        C  0.87077223  0.93210428  0.26810284     0.75600
O393        O  0.81498574  0.81267796  0.28445941    -0.58100
C394        C  0.93863272  0.80344019  0.28466617     0.75600
C395        C  0.87113828  0.87574600  0.32962030     0.78000
Cd396      Cd  0.87265285  0.85626477  0.28748693     1.37500
O397        O  0.90024032  0.90945773  0.26755457    -0.57000
O398        O  0.90105131  0.88048915  0.31879935    -0.55800
C399        C  0.81700606  0.80890315  0.26563814     0.78000
O400        O  0.84094877  0.86227301  0.32085575    -0.58200
O401        O  0.84144460  0.91946012  0.27773604    -0.56600
O402        O  0.90680710  0.79363060  0.29291422    -0.56600
O403        O  0.84364754  0.82848396  0.25707409    -0.55800
O404        O  0.12829690  0.60477405  0.25852562    -0.57000
C405        C  0.07478102  0.70128227  0.28317653     0.75600
O406        O  0.17198421  0.65176882  0.31997191    -0.58100
C407        C  0.15040406  0.57752570  0.26488593     0.75600
C408        C  0.20256167  0.70133693  0.26701627     0.78000
Cd409      Cd  0.14363424  0.65219623  0.28565619     1.37500
O410        O  0.07264249  0.66433149  0.28043143    -0.57000
O411        O  0.17493629  0.68521274  0.25736783    -0.55800
C412        C  0.14334481  0.63386856  0.32792045     0.78000
O413        O  0.20420961  0.69324108  0.28550234    -0.58200
O414        O  0.10838353  0.71496346  0.28710356    -0.56600
O415        O  0.16968643  0.58501869  0.28061292    -0.56600
O416        O  0.11580379  0.62416502  0.31619630    -0.55800
C417        C  0.97259692  0.77607705  0.28337117     0.00700
C418        C  0.00904033  0.79121796  0.27729380    -0.11200
C419        C  0.04238505  0.76722136  0.27660649     0.02900
C420        C  0.03983413  0.72710277  0.28227396     0.00600
C421        C  0.00325904  0.71151746  0.28764872    -0.11100
C422        C  0.96977818  0.73539194  0.28818103     0.02800
H423        H  0.01167469  0.82207319  0.27312562     0.15800
H424        H  0.00088619  0.68060401  0.29176542     0.15800
C425        C  0.93303371  0.71690475  0.29339943     0.37400
C426        C  0.07844499  0.78421058  0.26927005     0.37300
N427        N  0.90361583  0.70192921  0.29748691    -0.42900
N428        N  0.10726572  0.79768765  0.26323479    -0.42900
C429        C  0.74113736  0.72699335  0.23454902     0.00700
C430        C  0.76245647  0.75515706  0.22367068    -0.11200
C431        C  0.78696446  0.78244964  0.23334147     0.02900
C432        C  0.79047904  0.78190351  0.25444979     0.00600
C433        C  0.76947069  0.75337787  0.26524391    -0.11100
C434        C  0.74534640  0.72591809  0.25557140     0.02800
H435        H  0.75938064  0.75642462  0.20753659     0.15800
H436        H  0.77248831  0.75188410  0.28137508     0.15800
C437        C  0.72664207  0.69602364  0.26763162     0.37400
C438        C  0.80739401  0.81096876  0.22115034     0.37300
N439        N  0.71196270  0.67197044  0.27735497    -0.42900
N440        N  0.82376066  0.83373778  0.21132747    -0.42900
C441        C  0.23126876  0.72829122  0.25723658     0.00700
C442        C  0.26590132  0.73841898  0.26746574    -0.11200
C443        C  0.29419745  0.76307613  0.25875665     0.02900
C444        C  0.28809560  0.77852316  0.23932303     0.00600
C445        C  0.25299065  0.76920305  0.22933998    -0.11100
C446        C  0.22479462  0.74451710  0.23799424     0.02800
H447        H  0.27120402  0.72667791  0.28230012     0.15800
H448        H  0.24755251  0.78093636  0.21451634     0.15800
C449        C  0.18934115  0.73713122  0.22672708     0.37400
C450        C  0.32899840  0.77193222  0.27025829     0.37300
N451        N  0.16101711  0.73140220  0.21760493    -0.42900
N452        N  0.35687846  0.77896675  0.27950190    -0.42900
C453        C  0.54915264  0.72673047  0.20542714     0.00700
C454        C  0.55332236  0.76807652  0.20512004    -0.11200
C455        C  0.52060110  0.79307460  0.20548970     0.02900
C456        C  0.48240447  0.77678914  0.20631393     0.00600
C457        C  0.47826928  0.73549483  0.20654107    -0.11100
C458        C  0.51092257  0.71051787  0.20607580     0.02800
H459        H  0.58237974  0.78111336  0.20449312     0.15800
H460        H  0.44919762  0.72244694  0.20707172     0.15800
C461        C  0.50392722  0.66844146  0.20576735     0.37400
C462        C  0.52731659  0.83514971  0.20430253     0.37300
N463        N  0.49822755  0.63473429  0.20545662    -0.42900
N464        N  0.53282367  0.86883220  0.20325011    -0.42900
C465        C  0.66271167  0.54217336  0.23626398     0.00700
C466        C  0.66852335  0.50733921  0.22528100    -0.11200
C467        C  0.66887450  0.47039679  0.23470138     0.02900
C468        C  0.66422524  0.46789398  0.25562650     0.00600
C469        C  0.65961861  0.50280762  0.26670258    -0.11100
C470        C  0.65837441  0.53970998  0.25722722     0.02800
H471        H  0.67203752  0.50889421  0.20919770     0.15800
H472        H  0.65619009  0.50120464  0.28278948     0.15800
C473        C  0.65350615  0.57450757  0.26945776     0.37400
C474        C  0.67513684  0.43566904  0.22259015     0.37300
N475        N  0.64954728  0.60226147  0.27934941    -0.42900
N476        N  0.68021383  0.40784527  0.21288493    -0.42900
C477        C  0.37822493  0.03983719  0.25484522     0.00700
C478        C  0.41335672  0.01956213  0.25112340    -0.11200
C479        C  0.41339300  0.98190140  0.24247036     0.02900
C480        C  0.37757570  0.96369684  0.23697347     0.00600
C481        C  0.34242081  0.98417311  0.24040012    -0.11100
C482        C  0.34236059  0.02163534  0.24938577     0.02800
H483        H  0.44114592  0.03297314  0.25523760     0.15800
H484        H  0.31470763  0.97069144  0.23622741     0.15800
C485        C  0.30502624  0.04064752  0.25255466     0.37400
C486        C  0.45083009  0.96316368  0.23914818     0.37300
N487        N  0.27504985  0.05575625  0.25512978    -0.42900
N488        N  0.48084092  0.94813907  0.23655151    -0.42900
C489        C  0.55816089  0.27784849  0.28480448     0.00700
C490        C  0.52071749  0.29499575  0.28498498    -0.11200
C491        C  0.48686398  0.27158802  0.28508842     0.02900
C492        C  0.49005455  0.22995689  0.28476672     0.00600
C493        C  0.52744517  0.21277322  0.28416528    -0.11100
C494        C  0.56134526  0.23616983  0.28432562     0.02800
H495        H  0.51780451  0.32689409  0.28526700     0.15800
H496        H  0.53024100  0.18087087  0.28382501     0.15800
C497        C  0.59885069  0.21647465  0.28355360     0.37400
C498        C  0.44930780  0.29122965  0.28486632     0.37300
N499        N  0.62891672  0.20072821  0.28294698    -0.42900
N500        N  0.41924772  0.30702904  0.28464553    -0.42900
C501        C  0.87697671  0.04432148  0.23752087     0.00700
C502        C  0.84077628  0.03079361  0.24481785    -0.11200
C503        C  0.83773416  0.99479646  0.25507509     0.02900
C504        C  0.87150587  0.97119810  0.25800500     0.00600
C505        C  0.90765208  0.98501194  0.25081817    -0.11100
C506        C  0.91074715  0.02100252  0.24075456     0.02800
H507        H  0.81463455  0.04848170  0.24254568     0.15800
H508        H  0.93393938  0.96747625  0.25296886     0.15800
C509        C  0.94889681  0.03221853  0.23335923     0.37400
C510        C  0.79950339  0.98291821  0.26208051     0.37300
N511        N  0.97958909  0.04088581  0.22747854    -0.42900
N512        N  0.76875388  0.97369742  0.26767247    -0.42900
C513        C  0.80085326  0.23173358  0.23617218     0.00700
C514        C  0.80747072  0.23974273  0.25657246    -0.11200
C515        C  0.78258865  0.26487765  0.26739656     0.02900
C516        C  0.75002424  0.28250759  0.25782379     0.00600
C517        C  0.74379971  0.27484023  0.23740782    -0.11100
C518        C  0.76876040  0.25016409  0.22656315     0.02800
H519        H  0.83202326  0.22610742  0.26419534     0.15800
H520        H  0.71931154  0.28846971  0.22971573     0.15800
C521        C  0.76094335  0.24541680  0.20547079     0.37400
C522        C  0.79084055  0.27113958  0.28833751     0.37300
N523        N  0.75465283  0.24189917  0.18855774    -0.42900
N524        N  0.79759754  0.27611120  0.30511270    -0.42900
C525        C  0.15348296  0.53904827  0.25443100     0.00700
C526        C  0.15007206  0.53801804  0.23350588    -0.11200
C527        C  0.15275135  0.50228016  0.22298752     0.02900
C528        C  0.15767215  0.46646021  0.23354842     0.00600
C529        C  0.16082818  0.46751337  0.25444641    -0.11100
C530        C  0.15937945  0.50328324  0.26489454     0.02800
H531        H  0.14574075  0.56530996  0.22530972     0.15800
H532        H  0.16476458  0.44020735  0.26268990     0.15800
C533        C  0.16290449  0.50206335  0.28639039     0.37400
C534        C  0.14932605  0.50322670  0.20146813     0.37300
N535        N  0.16590247  0.50082147  0.30360861    -0.42900
N536        N  0.14675741  0.50402188  0.18422112    -0.42900
C537        C  0.30466254  0.23335625  0.25403329     0.00700
C538        C  0.30472334  0.23453115  0.23299386    -0.11200
C539        C  0.27835034  0.25849821  0.22234106     0.02900
C540        C  0.25155641  0.28272583  0.23275861     0.00600
C541        C  0.25230299  0.28237812  0.25375713    -0.11100
C542        C  0.27816762  0.25808268  0.26439644     0.02800
H543        H  0.32468475  0.21573873  0.22475037     0.15800
H544        H  0.23213925  0.30093067  0.26201812     0.15800
C545        C  0.27646859  0.25935840  0.28594880     0.37400
C546        C  0.27798323  0.25573927  0.20080651     0.37300
N547        N  0.27482121  0.26040993  0.30321302    -0.42900
N548        N  0.27740986  0.25328838  0.18355555    -0.42900
C549        C  0.05496083  0.27613701  0.20582922     0.00700
C550        C  0.01796592  0.29404743  0.20435042    -0.11200
C551        C  0.98368676  0.27132828  0.20350983     0.02900
C552        C  0.98608606  0.22963141  0.20428069     0.00600
C553        C  0.02305617  0.21180714  0.20602268    -0.11100
C554        C  0.05729377  0.23450618  0.20679157     0.02800
H555        H  0.01578333  0.32600737  0.20365402     0.15800
H556        H  0.02529790  0.17985980  0.20679185     0.15800
C557        C  0.09417974  0.21421904  0.20933907     0.37400
C558        C  0.94657544  0.29175896  0.20252912     0.37300
N559        N  0.12368642  0.19790954  0.21147485    -0.42900
N560        N  0.91686130  0.30816621  0.20179779    -0.42900
C561        C  0.97481592  0.28603015  0.53485283     0.00700
C562        C  0.01389421  0.29150439  0.52893004    -0.11200
C563        C  0.04019921  0.25980056  0.52823551     0.02900
C564        C  0.02753392  0.22142921  0.53357639     0.00600
C565        C  0.98854141  0.21615054  0.53983053    -0.11100
C566        C  0.96226371  0.24789773  0.54051600     0.02800
H567        H  0.02398754  0.32076736  0.52475480     0.15800
H568        H  0.97843645  0.18703550  0.54424655     0.15800
C569        C  0.92320113  0.24085803  0.54799270     0.37400
C570        C  0.08025404  0.26797870  0.52266610     0.37300
N571        N  0.89193678  0.23549129  0.55409066    -0.42900
N572        N  0.11237827  0.27461422  0.51827345    -0.42900
C573        C  0.13012893  0.61029940  0.39117607     0.00700
C574        C  0.16153378  0.63371860  0.38442700    -0.11200
C575        C  0.16740039  0.64092395  0.36399804     0.02900
C576        C  0.14110719  0.62494129  0.34971287     0.00600
C577        C  0.11041041  0.60064271  0.35646874    -0.11100
C578        C  0.10482083  0.59307703  0.37682868     0.02800
H579        H  0.18142879  0.64699415  0.39517829     0.15800
H580        H  0.09013540  0.58773528  0.34578897     0.15800
C581        C  0.07202938  0.56846770  0.38241284     0.37400
C582        C  0.20020537  0.66545191  0.35834985     0.37300
N583        N  0.04579161  0.54868320  0.38687880    -0.42900
N584        N  0.22664327  0.68500032  0.35391807    -0.42900
C585        C  0.02420961  0.52286934  0.48374342     0.00700
C586        C  0.99689398  0.53881176  0.49728036    -0.11200
C587        C  0.96968754  0.51484892  0.50717737     0.02900
C588        C  0.96937734  0.47375306  0.50370353     0.00600
C589        C  0.99594604  0.45782327  0.48987345    -0.11100
C590        C  0.02319924  0.48174234  0.47995077     0.02800
H591        H  0.99659234  0.57031363  0.50019014     0.15800
H592        H  0.99600313  0.42627116  0.48705827     0.15800
C593        C  0.04958707  0.46284481  0.46610841     0.37400
C594        C  0.94172981  0.53353994  0.52029044     0.37300
N595        N  0.07048331  0.44724836  0.45504042    -0.42900
N596        N  0.91927463  0.54869015  0.53070369    -0.42900
C597        C  0.87801653  0.88958789  0.39378518     0.00700
C598        C  0.90408477  0.91022513  0.38132737    -0.11200
C599        C  0.90151771  0.90753787  0.36046545     0.02900
C600        C  0.87206441  0.88391973  0.35148258     0.00600
C601        C  0.84438453  0.86545414  0.36385311    -0.11100
C602        C  0.84714109  0.86783898  0.38474660     0.02800
H603        H  0.92756100  0.92763395  0.38787944     0.15800
H604        H  0.82132660  0.84761070  0.35721196     0.15800
C605        C  0.81838808  0.84661980  0.39634451     0.37400
C606        C  0.92981116  0.92919759  0.34875183     0.37300
N607        N  0.79530474  0.82942971  0.40553678    -0.42900
N608        N  0.95252483  0.94652856  0.33938721    -0.42900
C609        C  0.98050051  0.97426688  0.48496821     0.00700
C610        C  0.99749385  0.96540477  0.50359505    -0.11200
C611        C  0.02261561  0.99203187  0.51327214     0.02900
C612        C  0.03106552  0.02904975  0.50442261     0.00600
C613        C  0.01382366  0.03802330  0.48583189    -0.11100
C614        C  0.98899343  0.01114938  0.47605786     0.02800
H615        H  0.99152228  0.93719063  0.51063275     0.15800
H616        H  0.01976941  0.06622214  0.47879161     0.15800
C617        C  0.97257189  0.02256952  0.45700336     0.37400
C618        C  0.03926011  0.98002207  0.53218321     0.37300
N619        N  0.95949208  0.03164786  0.44170396    -0.42900
N620        N  0.05256285  0.97010561  0.54729763    -0.42900
C621        C  0.97982108  0.77786516  0.45880369     0.00700
C622        C  0.98227214  0.75542956  0.44120586    -0.11200
C623        C  0.00651501  0.72227466  0.44001540     0.02900
C624        C  0.02916563  0.71077354  0.45677888     0.00600
C625        C  0.02689718  0.73332168  0.47437550    -0.11100
C626        C  0.00260894  0.76657967  0.47553590     0.02800
H627        H  0.96515323  0.76385457  0.42821001     0.15800
H628        H  0.04420711  0.72501792  0.48732024     0.15800
C629        C  0.00305406  0.78928261  0.49381140     0.37400
C630        C  0.00816745  0.70155353  0.42114859     0.37300
N631        N  0.00369521  0.80745942  0.50846322    -0.42900
N632        N  0.00949880  0.68505126  0.40601187    -0.42900
C633        C  0.38033820  0.12022089  0.34849561     0.00700
C634        C  0.40862809  0.09363519  0.35581170    -0.11200
C635        C  0.41213228  0.08555617  0.37628553     0.02900
C636        C  0.38734144  0.10488495  0.39009182     0.00600
C637        C  0.35770439  0.12975003  0.38266675    -0.11100
C638        C  0.35377483  0.13729529  0.36218646     0.02800
H639        H  0.42867114  0.07946869  0.34551593     0.15800
H640        H  0.33791690  0.14430419  0.39295389     0.15800
C641        C  0.32288637  0.16369721  0.35594242     0.37400
C642        C  0.44189132  0.05781921  0.38252714     0.37300
N643        N  0.29792181  0.18476143  0.35109290    -0.42900
N644        N  0.46561964  0.03540986  0.38745733    -0.42900
C645        C  0.29419415  0.10668140  0.48481131     0.00700
C646        C  0.27817237  0.14379075  0.48951707    -0.11200
C647        C  0.24119610  0.14731402  0.49839002     0.02900
C648        C  0.21912453  0.11307852  0.50291212     0.00600
C649        C  0.23530003  0.07592601  0.49846791    -0.11100
C650        C  0.27224009  0.07239324  0.48947832     0.02800
H651        H  0.29454687  0.17047782  0.48616687     0.15800
H652        H  0.21888848  0.04933275  0.50194228     0.15800
C653        C  0.28681628  0.03312310  0.48556566     0.37400
C654        C  0.22742854  0.18650738  0.50317995     0.37300
N655        N  0.29832337  0.00155918  0.48248185    -0.42900
N656        N  0.21663786  0.21801197  0.50700152    -0.42900
C657        C  0.63210615  0.38876233  0.39182515     0.00700
C658        C  0.66182018  0.36244137  0.38589911    -0.11200
C659        C  0.67147780  0.35725258  0.36574247     0.02900
C660        C  0.65100666  0.37855917  0.35088448     0.00600
C661        C  0.62251657  0.40611315  0.35684669    -0.11100
C662        C  0.61309662  0.41158780  0.37700998     0.02800
H663        H  0.67714878  0.34502073  0.39704156     0.15800
H664        H  0.60691176  0.42312845  0.34563608     0.15800
C665        C  0.58305946  0.44005165  0.38178591     0.37400
C666        C  0.70113753  0.32845213  0.36085651     0.37300
N667        N  0.55903100  0.46301876  0.38545667    -0.42900
N668        N  0.72493734  0.30531958  0.35706629    -0.42900
C669        C  0.78577166  0.39188916  0.50471860     0.00700
C670        C  0.76994282  0.35581623  0.49810707    -0.11200
C671        C  0.73324055  0.35406567  0.48876932     0.02900
C672        C  0.71141759  0.38907967  0.48582931     0.00600
C673        C  0.72755194  0.42524758  0.49199357    -0.11100
C674        C  0.76420971  0.42699775  0.50141298     0.02800
H675        H  0.78620116  0.32862474  0.50034639     0.15800
H676        H  0.71127466  0.45237075  0.48960109     0.15800
C677        C  0.77898514  0.46537630  0.50712721     0.37400
C678        C  0.71956945  0.31608009  0.48174399     0.37300
N679        N  0.79065190  0.49623600  0.51166106    -0.42900
N680        N  0.70884354  0.28559993  0.47607840    -0.42900
C681        C  0.48178976  0.21095780  0.45619101     0.00700
C682        C  0.46369521  0.24774503  0.45919413    -0.11200
C683        C  0.48540071  0.28284926  0.45882317     0.02900
C684        C  0.52632630  0.28145883  0.45579256     0.00600
C685        C  0.54454522  0.24473092  0.45313415    -0.11100
C686        C  0.52278646  0.20969936  0.45308812     0.02800
H687        H  0.43225102  0.24920634  0.46156255     0.15800
H688        H  0.57600643  0.24339047  0.45078287     0.15800
C689        C  0.54361053  0.17305804  0.45012273     0.37400
C690        C  0.46504939  0.31968501  0.46207185     0.37300
N691        N  0.56049175  0.14382687  0.44767769    -0.42900
N692        N  0.44879128  0.34923718  0.46463599    -0.42900
C693        C  0.71944536  0.88855997  0.50832822     0.00700
C694        C  0.74051177  0.85304114  0.50741422    -0.11200
C695        C  0.77686973  0.85084723  0.49792130     0.02900
C696        C  0.79334076  0.88502570  0.48907897     0.00600
C697        C  0.77238737  0.92076353  0.49019256    -0.11100
C698        C  0.73576189  0.92280574  0.49959228     0.02800
H699        H  0.72839880  0.82652334  0.51412022     0.15800
H700        H  0.78436091  0.94726963  0.48343755     0.15800
C701        C  0.71494304  0.95991363  0.49910777     0.37400
C702        C  0.79564420  0.81267366  0.49713969     0.37300
N703        N  0.69832705  0.98968104  0.49852135    -0.42900
N704        N  0.81024260  0.78185614  0.49653147    -0.42900
C705        C  0.53037467  0.96648168  0.50747227     0.00700
C706        C  0.51320004  0.95453011  0.48927918    -0.11200
C707        C  0.48747560  0.97929399  0.47874155     0.02900
C708        C  0.47916998  0.01757164  0.48612051     0.00600
C709        C  0.49600335  0.02922972  0.50439485    -0.11100
C710        C  0.52079055  0.00415139  0.51517441     0.02800
H711        H  0.51949774  0.92546113  0.48329790     0.15800
H712        H  0.48958271  0.05817667  0.51049160     0.15800
C713        C  0.53522880  0.01805752  0.53422818     0.37400
C714        C  0.46986529  0.96416206  0.46062343     0.37300
N715        N  0.54639806  0.02920636  0.54957706    -0.42900
N716        N  0.45556917  0.95173933  0.44621778    -0.42900
C717        C  0.21585383  0.60672401  0.48674878     0.00700
C718        C  0.23882275  0.64113048  0.48589585    -0.11200
C719        C  0.27596464  0.64272110  0.49480527     0.02900
C720        C  0.29048602  0.60956441  0.50537205     0.00600
C721        C  0.26743665  0.57516651  0.50620352    -0.11100
C722        C  0.23067040  0.57333864  0.49691475     0.02800
H723        H  0.22799040  0.66681655  0.47792460     0.15800
H724        H  0.27816450  0.54940865  0.51413691     0.15800
C725        C  0.20853999  0.53709219  0.49853079     0.37400
C726        C  0.29814205  0.67890053  0.49285585     0.37300
N727        N  0.19086431  0.50800136  0.49979724    -0.42900
N728        N  0.31599707  0.70780485  0.49118253    -0.42900
C729        C  0.47253796  0.52288807  0.50706077     0.00700
C730        C  0.48242257  0.53006555  0.48700000    -0.11200
C731        C  0.50707594  0.50456383  0.47641465     0.02900
C732        C  0.52323082  0.47104998  0.48597314     0.00600
C733        C  0.51292388  0.46349324  0.50595360    -0.11100
C734        C  0.48780349  0.48875577  0.51648227     0.02800
H735        H  0.47070955  0.55576010  0.47939719     0.15800
H736        H  0.52457880  0.43767920  0.51347618     0.15800
C737        C  0.47822878  0.47847913  0.53683958     0.37400
C738        C  0.51398281  0.51308944  0.45557706     0.37300
N739        N  0.47049347  0.47006649  0.55312096    -0.42900
N740        N  0.51921473  0.51983838  0.43884360    -0.42900
C741        C  0.52956619  0.78146378  0.53553327     0.00700
C742        C  0.54546648  0.74364857  0.53791824    -0.11200
C743        C  0.52148316  0.71010687  0.53783331     0.02900
C744        C  0.48036769  0.71413266  0.53539338     0.00600
C745        C  0.46475618  0.75207396  0.53225774    -0.11100
C746        C  0.48891354  0.78554639  0.53221212     0.02800
H747        H  0.57681786  0.74031011  0.54016013     0.15800
H748        H  0.43350468  0.75573875  0.52985027     0.15800
C749        C  0.47158198  0.82347508  0.52777348     0.37400
C750        C  0.54028625  0.67214531  0.54002322     0.37300
N751        N  0.45786865  0.85384300  0.52401697    -0.42900
N752        N  0.55549070  0.64177611  0.54169444    -0.42900
C753        C  0.48002826  0.28072942  0.95765115     0.00700
C754        C  0.49234402  0.26543388  0.93920106    -0.11200
C755        C  0.51633611  0.23203359  0.93821029     0.02900
C756        C  0.52924314  0.21373804  0.95601086     0.00600
C757        C  0.51691893  0.22894293  0.97446578    -0.11100
C758        C  0.49215269  0.26182225  0.97544843     0.02800
H759        H  0.48304833  0.27955673  0.92543185     0.15800
H760        H  0.52642754  0.21485727  0.98820763     0.15800
C761        C  0.48072741  0.27601599  0.99492929     0.37400
C762        C  0.52824879  0.21814185  0.91874111     0.37300
N763        N  0.47160888  0.28717818  0.01058802    -0.42900
N764        N  0.53767492  0.20710591  0.90310663    -0.42900
C765        C  0.65652002  0.62707273  0.13966736     0.00700
C766        C  0.63527701  0.59411895  0.13278624    -0.11200
C767        C  0.62914915  0.58750366  0.11233211     0.02900
C768        C  0.64466334  0.61420206  0.09812773     0.00600
C769        C  0.66751292  0.64610045  0.10502043    -0.11100
C770        C  0.67329454  0.65291198  0.12547218     0.02800
H771        H  0.62248248  0.57381749  0.14348117     0.15800
H772        H  0.67966191  0.66697229  0.09442028     0.15800
C773        C  0.69410996  0.68828352  0.13131034     0.37400
C774        C  0.60585993  0.55368632  0.10656806     0.37300
N775        N  0.71054186  0.71683464  0.13589512    -0.42900
N776        N  0.58707255  0.52663893  0.10199264    -0.42900
C777        C  0.53687276  0.52659624  0.00543853     0.00700
C778        C  0.51122095  0.54036180  0.99049280    -0.11200
C779        C  0.48492580  0.51489297  0.98076148     0.02900
C780        C  0.48405320  0.47430731  0.98577787     0.00600
C781        C  0.50960616  0.46061808  0.00080455    -0.11100
C782        C  0.53573679  0.48612472  0.01060210     0.02800
H783        H  0.51132928  0.57138888  0.98648180     0.15800
H784        H  0.50952557  0.42962087  0.00487257     0.15800
C785        C  0.56150240  0.46951603  0.02555193     0.37400
C786        C  0.45892080  0.53166293  0.96597309     0.37300
N787        N  0.58214026  0.45618194  0.03752876    -0.42900
N788        N  0.43807784  0.54525849  0.95416557    -0.42900
C789        C  0.37673894  0.88201264  0.10093225     0.00700
C790        C  0.35925953  0.84734783  0.10840767    -0.11200
C791        C  0.35481880  0.84113971  0.12898135     0.02900
C792        C  0.36733800  0.87039809  0.14267539     0.00600
C793        C  0.38269024  0.90595516  0.13518552    -0.11100
C794        C  0.38765669  0.91195284  0.11463824     0.02800
H795        H  0.35057968  0.82401347  0.09819780     0.15800
H796        H  0.39208348  0.92885716  0.14548345     0.15800
C797        C  0.40544844  0.94857626  0.10832367     0.37400
C798        C  0.34006596  0.80326708  0.13549673     0.37300
N799        N  0.41992814  0.97791376  0.10339005    -0.42900
N800        N  0.32855806  0.77279158  0.14069899    -0.42900
C801        C  0.52881929  0.02511604  0.98562262     0.00700
C802        C  0.53572460  0.98451897  0.98312798    -0.11200
C803        C  0.51349615  0.95626541  0.99341626     0.02900
C804        C  0.48343609  0.96839142  0.00657179     0.00600
C805        C  0.47642869  0.00894457  0.00903953    -0.11100
C806        C  0.49830660  0.03720942  0.99856554     0.02800
H807        H  0.55909631  0.97472692  0.97337596     0.15800
H808        H  0.45303355  0.01862619  0.01880772     0.15800
C809        C  0.48751049  0.07823317  0.00080303     0.37400
C810        C  0.52333387  0.91512085  0.99074668     0.37300
N811        N  0.47867578  0.11107132  0.00246765    -0.42900
N812        N  0.53134688  0.88217476  0.98863073    -0.42900
C813        C  0.53671202  0.71593031  0.03621095     0.00700
C814        C  0.49610887  0.70943038  0.03496054    -0.11200
C815        C  0.46965705  0.74096075  0.03520880     0.02900
C816        C  0.48381904  0.78008650  0.03682950     0.00600
C817        C  0.52436831  0.78651465  0.03843436    -0.11100
C818        C  0.55080949  0.75500820  0.03810987     0.02800
H819        H  0.48489991  0.67950120  0.03367982     0.15800
H820        H  0.53557519  0.81642264  0.03984034     0.15800
C821        C  0.59200345  0.76372912  0.04049030     0.37400
C822        C  0.42827140  0.73198712  0.03456281     0.37300
N823        N  0.62496409  0.77089502  0.04247843    -0.42900
N824        N  0.39518466  0.72442413  0.03413188    -0.42900
C825        C  0.79498079  0.61386990  0.98030459     0.00700
C826        C  0.77872376  0.57747480  0.98618203    -0.11200
C827        C  0.74232975  0.57547812  0.99581546     0.02900
C828        C  0.72133828  0.61050541  0.99993309     0.00600
C829        C  0.73692733  0.64673428  0.99353233    -0.11100
C830        C  0.77318689  0.64878984  0.98383036     0.02800
H831        H  0.79457271  0.55029951  0.98334426     0.15800
H832        H  0.72098932  0.67386379  0.99641232     0.15800
C833        C  0.78674841  0.68726704  0.97758375     0.37400
C834        C  0.72679144  0.53698447  0.00071447     0.37300
N835        N  0.79732720  0.71821519  0.97259043    -0.42900
N836        N  0.71416234  0.50616114  0.00453911    -0.42900
C837        C  0.22449229  0.88854152  0.98441382     0.00700
C838        C  0.24546812  0.92393336  0.98720252    -0.11200
C839        C  0.28215115  0.92423680  0.99667317     0.02900
C840        C  0.29849016  0.88856930  0.00381162     0.00600
C841        C  0.27809767  0.85310623  0.00055240    -0.11100
C842        C  0.24161413  0.85268579  0.99096732     0.02800
H843        H  0.23329214  0.95160437  0.98191052     0.15800
H844        H  0.29045787  0.82544694  0.00577302     0.15800
C845        C  0.22283988  0.81482495  0.98806399     0.37400
C846        C  0.30283561  0.96138316  0.99821128     0.37300
N847        N  0.20778917  0.78451604  0.98567370    -0.42900
N848        N  0.31957379  0.99106624  0.99935647    -0.42900
C849        C  0.03408556  0.78829604  0.95269856     0.00700
C850        C  0.02023122  0.77328009  0.93441300    -0.11200
C851        C  0.99557836  0.74012206  0.93379078     0.02900
C852        C  0.98396486  0.72163321  0.95178602     0.00600
C853        C  0.99694413  0.73735065  0.97004356    -0.11100
C854        C  0.02189838  0.77014687  0.97065743     0.02800
H855        H  0.02903590  0.78719656  0.92053948     0.15800
H856        H  0.98802784  0.72359893  0.98394108     0.15800
C857        C  0.03357890  0.78513758  0.98999083     0.37400
C858        C  0.98180347  0.72648054  0.91453645     0.37300
N859        N  0.04297209  0.79724747  0.00545893    -0.42900
N860        N  0.97064410  0.71551804  0.89914563    -0.42900
C861        C  0.87422019  0.12371523  0.14045259     0.00700
C862        C  0.85369917  0.14956023  0.12777186    -0.11200
C863        C  0.85579278  0.14600180  0.10693768     0.02900
C864        C  0.87888254  0.11579826  0.09824122     0.00600
C865        C  0.89736852  0.08847249  0.11093887    -0.11100
C866        C  0.89525964  0.09205011  0.13177066     0.02800
H867        H  0.83694543  0.17369219  0.13412061     0.15800
H868        H  0.91463438  0.06470155  0.10460353     0.15800
C869        C  0.91528926  0.06275863  0.14368281     0.37400
C870        C  0.83452458  0.17448353  0.09505984     0.37300
N871        N  0.93137289  0.03904222  0.15306545    -0.42900
N872        N  0.81741967  0.19741755  0.08564352    -0.42900
C873        C  0.71795327  0.10790721  0.98744612     0.00700
C874        C  0.73314947  0.14374980  0.99474564    -0.11200
C875        C  0.77012867  0.14569307  0.00379111     0.02900
C876        C  0.79319619  0.11121282  0.00561418     0.00600
C877        C  0.77779622  0.07517615  0.99870536    -0.11100
C878        C  0.74061588  0.07314311  0.98976472     0.02800
H879        H  0.71610369  0.17063537  0.99338413     0.15800
H880        H  0.79494363  0.04837813  0.00021927     0.15800
C881        C  0.72658217  0.03481839  0.98345991     0.37400
C882        C  0.78285630  0.18333389  0.01166901     0.37300
N883        N  0.71538520  0.00401978  0.97851892    -0.42900
N884        N  0.79299549  0.21344405  0.01806706    -0.42900
C885        C  0.98337473  0.02690606  0.00535529     0.00700
C886        C  0.99624700  0.03606549  0.98595456    -0.11200
C887        C  0.02163514  0.01111873  0.97549127     0.02900
C888        C  0.03484536  0.97560592  0.98435501     0.00600
C889        C  0.02184042  0.96627864  0.00374469    -0.11100
C890        C  0.99652079  0.99138785  0.01426244     0.02800
H891        H  0.98656922  0.06310029  0.97881882     0.15800
H892        H  0.03157643  0.93922409  0.01083968     0.15800
C893        C  0.98499395  0.97979996  0.03416827     0.37400
C894        C  0.03330153  0.02310696  0.95567579     0.37300
N895        N  0.97589033  0.97039047  0.05012113    -0.42900
N896        N  0.04253833  0.03298684  0.93981922    -0.42900
C897        C  0.15032059  0.37845066  0.14053808     0.00700
C898        C  0.11571813  0.39713832  0.13410134    -0.11200
C899        C  0.10826578  0.40402865  0.11384792     0.02900
C900        C  0.13569267  0.39171212  0.09933626     0.00600
C901        C  0.17107111  0.37454310  0.10580888    -0.11100
C902        C  0.17870259  0.36804579  0.12613050     0.02800
H903        H  0.09386699  0.40601658  0.14494716     0.15800
H904        H  0.19268869  0.36533427  0.09491782     0.15800
C905        C  0.21540874  0.34968937  0.13153947     0.37400
C906        C  0.07164582  0.42275362  0.10857289     0.37300
N907        N  0.24492620  0.33509166  0.13580699    -0.42900
N908        N  0.04232371  0.43784884  0.10439987    -0.42900
C909        C  0.22251909  0.39088603  0.00759937     0.00700
C910        C  0.24133775  0.35459027  0.00432636    -0.11200
C911        C  0.27757229  0.35261865  0.99467303     0.02900
C912        C  0.29631147  0.38773764  0.98829799     0.00600
C913        C  0.27767518  0.42409575  0.99176269    -0.11100
C914        C  0.24115259  0.42600523  0.00119254     0.02800
H915        H  0.22743905  0.32735496  0.00908907     0.15800
H916        H  0.29147070  0.45130202  0.98688728     0.15800
C917        C  0.22311856  0.46434815  0.00333484     0.37400
C918        C  0.29364355  0.31390046  0.99083596     0.37300
N919        N  0.20866025  0.49509403  0.00493857    -0.42900
N920        N  0.30619806  0.28278400  0.98765989    -0.42900
C921        C  0.98753248  0.53191197  0.98430885     0.00700
C922        C  0.00014339  0.49787866  0.97417650    -0.11200
C923        C  0.02466390  0.47014107  0.98338623     0.02900
C924        C  0.03704902  0.47587658  0.00340779     0.00600
C925        C  0.02490833  0.51018113  0.01345607    -0.11100
C926        C  0.00058795  0.53807034  0.00419378     0.02800
H927        H  0.99091549  0.49280868  0.95886438     0.15800
H928        H  0.03418621  0.51522768  0.02876210     0.15800
C929        C  0.98970036  0.57249269  0.01565547     0.37400
C930        C  0.03683756  0.43654263  0.97163763     0.37300
N931        N  0.98119231  0.60002956  0.02493188    -0.42900
N932        N  0.04649963  0.40979735  0.96207031    -0.42900
C933        C  0.03546980  0.28302930  0.03576885     0.00700
C934        C  0.02661636  0.26477327  0.01746697    -0.11200
C935        C  0.00186034  0.23181009  0.01659606     0.02900
C936        C  0.98564264  0.21634733  0.03432771     0.00600
C937        C  0.99535721  0.23392762  0.05270561    -0.11100
C938        C  0.01991412  0.26706624  0.05357787     0.02800
H939        H  0.03876071  0.27653111  0.00374311     0.15800
H940        H  0.98347805  0.22191623  0.06643504     0.15800
C941        C  0.02980046  0.28311814  0.07297335     0.37400
C942        C  0.99505977  0.21343889  0.99742084     0.37300
N943        N  0.03795194  0.29597156  0.08847479    -0.42900
N944        N  0.98987160  0.19860522  0.98205274    -0.42900
C945        C  0.64749411  0.11813704  0.85104614     0.00700
C946        C  0.67134685  0.13975526  0.86426212    -0.11200
C947        C  0.66706799  0.13631145  0.88500029     0.02900
C948        C  0.63783999  0.11115624  0.89297546     0.00600
C949        C  0.61572252  0.08774176  0.87978593    -0.11100
C950        C  0.62045788  0.09064735  0.85908192     0.02800
H951        H  0.69294877  0.16021878  0.85840559     0.15800
H952        H  0.59383989  0.06756424  0.88562496     0.15800
C953        C  0.59709828  0.06478748  0.84665019     0.37400
C954        C  0.69347186  0.15870736  0.89756331     0.37300
N955        N  0.57842794  0.04372574  0.83685048    -0.42900
N956        N  0.71498694  0.17652256  0.90749733    -0.42900
C957        C  0.37162923  0.37495078  0.85071789     0.00700
C958        C  0.35193043  0.34919090  0.86370590    -0.11200
C959        C  0.35531516  0.35300972  0.88449799     0.02900
C960        C  0.37864252  0.38360528  0.89284170     0.00600
C961        C  0.39655827  0.41067176  0.87982252    -0.11100
C962        C  0.39328939  0.40672919  0.85903200     0.02800
H963        H  0.33497796  0.32483181  0.85761889     0.15800
H964        H  0.41403588  0.43467579  0.88587870     0.15800
C965        C  0.41283667  0.43570270  0.84672835     0.37400
C966        C  0.33592007  0.32374443  0.89667060     0.37300
N967        N  0.42852404  0.45892866  0.83689007    -0.42900
N968        N  0.32041842  0.30007299  0.90631039    -0.42900
C969        C  0.54271664  0.21917618  0.78514438     0.00700
C970        C  0.54663500  0.25913585  0.79038832    -0.11200
C971        C  0.51435947  0.28440272  0.79059943     0.02900
C972        C  0.47681427  0.26977981  0.78562561     0.00600
C973        C  0.47256710  0.22968249  0.78063997    -0.11100
C974        C  0.50507736  0.20436439  0.78021059     0.02800
H975        H  0.57526354  0.27091106  0.79433401     0.15800
H976        H  0.44374550  0.21812893  0.77689976     0.15800
C977        C  0.49855880  0.16333648  0.77525717     0.37400
C978        C  0.52055417  0.32483910  0.79675006     0.37300
N979        N  0.49294905  0.13052023  0.77128508    -0.42900
N980        N  0.52558961  0.35720703  0.80171703    -0.42900
C981        C  0.13621695  0.12033653  0.59669916     0.00700
C982        C  0.11528131  0.09596960  0.60989816    -0.11200
C983        C  0.11982512  0.09944249  0.63063061     0.02900
C984        C  0.14587597  0.12796692  0.63867582     0.00600
C985        C  0.16851666  0.15068456  0.62548610    -0.11100
C986        C  0.16395433  0.14725337  0.60474395     0.02800
H987        H  0.09436957  0.07470882  0.60405351     0.15800
H988        H  0.18901893  0.17231443  0.63137798     0.15800
C989        C  0.18779614  0.17236819  0.59225834     0.37400
C990        C  0.09704919  0.07340551  0.64316713     0.37300
N991        N  0.20692569  0.19257342  0.58230408    -0.42900
N992        N  0.07881288  0.05256191  0.65322207    -0.42900
C993        C  0.28760580  0.28047503  0.75288300     0.00700
C994        C  0.25122725  0.27238048  0.76178776    -0.11200
C995        C  0.22339846  0.24830802  0.75233506     0.02900
C996        C  0.23182439  0.23125217  0.73351267     0.00600
C997        C  0.26777118  0.24002607  0.72439474    -0.11100
C998        C  0.29549079  0.26434944  0.73375848     0.02800
H999        H  0.24436031  0.28485202  0.77629186     0.15800
H1000       H  0.27453210  0.22751613  0.70988312     0.15800
C1001       C  0.33166931  0.27170846  0.72324253     0.37400
C1002       C  0.18620149  0.24265212  0.76219639     0.37300
N1003       N  0.36050024  0.27745655  0.71464592    -0.42900
N1004       N  0.15637635  0.23831923  0.77009899    -0.42900
C1005       C  0.86444141  0.38116338  0.64225013     0.00700
C1006       C  0.88894102  0.41119106  0.63484907    -0.11200
C1007       C  0.89333237  0.41744270  0.61426447     0.02900
C1008       C  0.87306144  0.39307021  0.60047981     0.00600
C1009       C  0.84658166  0.36483404  0.60794242    -0.11100
C1010       C  0.84211887  0.35866602  0.62850122     0.02800
H1011       H  0.90564155  0.42931962  0.64519678     0.15800
H1012       H  0.83027076  0.34621362  0.59766864     0.15800
C1013       C  0.81615626  0.32737143  0.63482371     0.37400
C1014       C  0.91957492  0.44847034  0.60792302     0.37300
N1015       N  0.79540594  0.30218416  0.63980815    -0.42900
N1016       N  0.94061238  0.47343213  0.60295957    -0.42900
C1017       C  0.78634684  0.27604105  0.73698601     0.00700
C1018       C  0.79014191  0.27042611  0.75773796    -0.11200
C1019       C  0.76451457  0.24558581  0.76826519     0.02900
C1020       C  0.73390394  0.22572531  0.75804075     0.00600
C1021       C  0.73015151  0.23134438  0.73731513    -0.11100
C1022       C  0.75603144  0.25572672  0.72675488     0.02800
H1023       H  0.81321898  0.28557346  0.76586280     0.15800
H1024       H  0.70719308  0.21605690  0.72916681     0.15800
C1025       C  0.75125029  0.25803500  0.70533482     0.37400
C1026       C  0.77015411  0.24178691  0.78957614     0.37300
N1027       N  0.74749141  0.25960295  0.68815888    -0.42900
N1028       N  0.77479788  0.23879561  0.80664883    -0.42900
C1029       C  0.04367347  0.22930712  0.70747081     0.00700
C1030       C  0.00700505  0.21198271  0.70375025    -0.11200
C1031       C  0.97275963  0.23460518  0.70395889     0.02900
C1032       C  0.97490759  0.27560146  0.70782158     0.00600
C1033       C  0.01141390  0.29256330  0.71247996    -0.11100
C1034       C  0.04564319  0.26982597  0.71244126     0.02800
H1035       H  0.00509549  0.18065942  0.70039736     0.15800
H1036       H  0.01332100  0.32381153  0.71599675     0.15800
C1037       C  0.08200534  0.28839219  0.71841401     0.37400
C1038       C  0.93579460  0.21463359  0.70089150     0.37300
N1039       N  0.11106980  0.30312740  0.72340225    -0.42900
N1040       N  0.90615950  0.19856297  0.69858894    -0.42900
C1041       C  0.37258656  0.62075954  0.64359645     0.00700
C1042       C  0.39977713  0.59394149  0.63564149    -0.11200
C1043       C  0.40307053  0.58808400  0.61502210     0.02900
C1044       C  0.37875942  0.60949687  0.60171708     0.00600
C1045       C  0.35022050  0.63489024  0.60972849    -0.11100
C1046       C  0.34688964  0.64066355  0.63039778     0.02800
H1047       H  0.41944460  0.57811547  0.64556756     0.15800
H1048       H  0.33110942  0.65131516  0.59978229     0.15800
C1049       C  0.31822832  0.66875031  0.63743348     0.37400
C1050       C  0.43310527  0.56136309  0.60812310     0.37300
N1051       N  0.29533305  0.69129288  0.64310741    -0.42900
N1052       N  0.45726471  0.53998162  0.60267073    -0.42900
C1053       C  0.37519800  0.53629994  0.73814945     0.00700
C1054       C  0.41088453  0.51758478  0.74262803    -0.11200
C1055       C  0.41188834  0.48072635  0.75201588     0.02900
C1056       C  0.37645639  0.46144393  0.75702182     0.00600
C1057       C  0.34075805  0.48039684  0.75284473    -0.11100
C1058       C  0.33976954  0.51741725  0.74354119     0.02800
H1059       H  0.43837636  0.53180002  0.73876597     0.15800
H1060       H  0.31333803  0.46617980  0.75681196     0.15800
C1061       C  0.30198440  0.53549900  0.74026235     0.37400
C1062       C  0.44980066  0.46439483  0.75695521     0.37300
N1063       N  0.27161298  0.54988030  0.73774016    -0.42900
N1064       N  0.48026500  0.45160640  0.76097711    -0.42900
C1065       C  0.65291073  0.87198499  0.64373248     0.00700
C1066       C  0.63111851  0.90458447  0.63695750    -0.11200
C1067       C  0.62333972  0.91024759  0.61658761     0.02900
C1068       C  0.63743823  0.88275637  0.60239795     0.00600
C1069       C  0.66046762  0.85097861  0.60916616    -0.11100
C1070       C  0.66823014  0.84531325  0.62949868     0.02800
H1071       H  0.61936184  0.92547576  0.64766747     0.15800
H1072       H  0.67178140  0.82964549  0.59855941     0.15800
C1073       C  0.69042197  0.81075163  0.63519416     0.37400
C1074       C  0.60005478  0.94404296  0.61093282     0.37300
N1075       N  0.70813439  0.78300405  0.63971932    -0.42900
N1076       N  0.58137575  0.97119907  0.60650979    -0.42900
C1077       C  0.65712595  0.95791860  0.74042482     0.00700
C1078       C  0.68906476  0.98378245  0.73784734    -0.11200
C1079       C  0.68957675  0.02125123  0.74671774     0.02900
C1080       C  0.65759951  0.03354270  0.75847085     0.00600
C1081       C  0.62601028  0.00765232  0.76134026    -0.11100
C1082       C  0.62546899  0.97015824  0.75258897     0.02800
H1083       H  0.71357157  0.97506119  0.72856158     0.15800
H1084       H  0.60147236  0.01678153  0.77053142     0.15800
C1085       C  0.59158221  0.94559475  0.75620948     0.37400
C1086       C  0.72224706  0.04713717  0.74259527     0.37300
N1087       N  0.56426338  0.92620162  0.75920932    -0.42900
N1088       N  0.74837509  0.06786999  0.73917018    -0.42900
C1089       C  0.48796997  0.72008000  0.70638264     0.00700
C1090       C  0.48361174  0.76120062  0.70494041    -0.11200
C1091       C  0.51612859  0.78625477  0.70475355     0.02900
C1092       C  0.55424094  0.77029154  0.70617044     0.00600
C1093       C  0.55883124  0.72907922  0.70686811    -0.11100
C1094       C  0.52618285  0.70390426  0.70702182     0.02800
H1095       H  0.45451926  0.77403357  0.70405211     0.15800
H1096       H  0.58803817  0.71646155  0.70756766     0.15800
C1097       C  0.53293569  0.66178753  0.70731926     0.37400
C1098       C  0.50939199  0.82808939  0.70230205     0.37300
N1099       N  0.53847053  0.62805913  0.70749844    -0.42900
N1100       N  0.50393359  0.86157059  0.70021793    -0.42900
C1101       C  0.16510370  0.88808899  0.85023734     0.00700
C1102       C  0.13738008  0.91590997  0.85683339    -0.11200
C1103       C  0.12901938  0.92078066  0.87714892     0.02900
C1104       C  0.14863149  0.89743704  0.89153662     0.00600
C1105       C  0.17828624  0.87159996  0.88507709    -0.11100
C1106       C  0.18675812  0.86681665  0.86473112     0.02800
H1107       H  0.12082203  0.93299913  0.84602066     0.15800
H1108       H  0.19427819  0.85408905  0.89593758     0.15800
C1109       C  0.21701845  0.83902051  0.85934932     0.37400
C1110       C  0.09872517  0.94854904  0.88253349     0.37300
N1111       N  0.24135480  0.81672880  0.85517591    -0.42900
N1112       N  0.07443849  0.97078500  0.88685179    -0.42900
C1113       C  0.15909754  0.97184104  0.75535039     0.00700
C1114       C  0.19132860  0.98369368  0.74381549    -0.11200
C1115       C  0.19086877  0.01931451  0.73316839     0.02900
C1116       C  0.15747325  0.04406522  0.73397397     0.00600
C1117       C  0.12536868  0.03217618  0.74564042    -0.11100
C1118       C  0.12591438  0.99671804  0.75631712     0.02800
H1119       H  0.21696901  0.96485140  0.74295069     0.15800
H1120       H  0.09961700  0.05083708  0.74662811     0.15800
C1121       C  0.09256823  0.98766030  0.76876522     0.37400
C1122       C  0.22523199  0.02945316  0.72171077     0.37300
N1123       N  0.06589335  0.98064503  0.77880556    -0.42900
N1124       N  0.25285644  0.03751630  0.71257607    -0.42900
C1125       C  0.24618805  0.78133170  0.75616412     0.00700
C1126       C  0.28081467  0.77008030  0.76604222    -0.11200
C1127       C  0.30751042  0.74392734  0.75723697     0.02900
C1128       C  0.30006613  0.72847118  0.73792242     0.00600
C1129       C  0.26553146  0.73987198  0.72799754    -0.11100
C1130       C  0.23865574  0.76571833  0.73686040     0.02800
H1131       H  0.28707203  0.78154630  0.78084594     0.15800
H1132       H  0.25922320  0.72834186  0.71321002     0.15800
C1133       C  0.20375187  0.77542281  0.72561130     0.37400
C1134       C  0.34238037  0.73403415  0.76843295     0.37300
N1135       N  0.17578477  0.78299479  0.71656299    -0.42900
N1136       N  0.37027723  0.72613709  0.77745899    -0.42900
C1137       C  0.88921391  0.61773171  0.84641538     0.00700
C1138       C  0.85875177  0.63232453  0.85837779    -0.11200
C1139       C  0.85907519  0.62736131  0.87909723     0.02900
C1140       C  0.89043651  0.60721243  0.88842982     0.00600
C1141       C  0.91955765  0.59016724  0.87638877    -0.11100
C1142       C  0.91933568  0.59527081  0.85558602     0.02800
H1143       H  0.83494587  0.64885685  0.85161986     0.15800
H1144       H  0.94365960  0.57433202  0.88330682     0.15800
C1145       C  0.95107868  0.57812236  0.84428601     0.37400
C1146       C  0.82692428  0.64385464  0.89032008     0.37300
N1147       N  0.97651906  0.56438037  0.83524210    -0.42900
N1148       N  0.80113594  0.65718364  0.89925339    -0.42900
C1149       C  0.88432714  0.54115939  0.75329935     0.00700
C1150       C  0.84697602  0.52660544  0.74820154    -0.11200
C1151       C  0.84223386  0.48959789  0.73914977     0.02900
C1152       C  0.87544625  0.46597634  0.73513373     0.00600
C1153       C  0.91275865  0.48056721  0.74024825    -0.11100
C1154       C  0.91753064  0.51764084  0.74913570     0.02800
H1155       H  0.82116337  0.54424876  0.75126248     0.15800
H1156       H  0.93863418  0.46299277  0.73721710     0.15800
C1157       C  0.95692017  0.53015015  0.75399836     0.37400
C1158       C  0.80288401  0.47684039  0.73439384     0.37300
N1159       N  0.98856024  0.54001999  0.75782449    -0.42900
N1160       N  0.77127493  0.46683346  0.73059123    -0.42900
C1161       C  0.80304429  0.72995251  0.75706259     0.00700
C1162       C  0.81124618  0.74553439  0.73804977    -0.11200
C1163       C  0.78426837  0.76940170  0.72795661     0.02900
C1164       C  0.74787727  0.77836770  0.73691903     0.00600
C1165       C  0.73975014  0.76303932  0.75598392    -0.11100
C1166       C  0.76671126  0.73910784  0.76607385     0.02800
H1167       H  0.83889101  0.73887667  0.73086137     0.15800
H1168       H  0.71201478  0.76961253  0.76310771     0.15800
C1169       C  0.75568396  0.72433074  0.78550442     0.37400
C1170       C  0.79476388  0.78329594  0.70827944     0.37300
N1171       N  0.74641252  0.71270968  0.80105236    -0.42900
N1172       N  0.80340825  0.79423692  0.69251220    -0.42900
C1173       C  0.05877472  0.78394745  0.78467965     0.00700
C1174       C  0.04385864  0.76918793  0.80273568    -0.11200
C1175       C  0.01143938  0.74386243  0.80298666     0.02900
C1176       C  0.99345199  0.73238363  0.78483003     0.00600
C1177       C  0.00852269  0.74680005  0.76675717    -0.11100
C1178       C  0.04062143  0.77262096  0.76651505     0.02800
H1179       H  0.05751583  0.77751295  0.81677385     0.15800
H1180       H  0.99489927  0.73821776  0.75275109     0.15800
C1181       C  0.05466138  0.78614740  0.74735910     0.37400
C1182       C  0.99821146  0.72912895  0.82207748     0.37300
N1183       N  0.06583997  0.79703560  0.73200520    -0.42900
N1184       N  0.98760517  0.71729207  0.83735892    -0.42900
loop_ 
_geom_bond_atom_site_label_1 
_geom_bond_atom_site_label_2 
_geom_bond_distance 
_geom_bond_site_symmetry_2 
_ccdc_geom_bond_type 
O1            C4   1.268       .  A
O1           Cd6   2.446       .  S
C2           O11   1.265       .  A
C2            O7   1.266       .  A
C2         C1161   1.486       .  S
O3            C9   1.267       .  A
O3           Cd6   2.473       .  S
C4           O12   1.265       .  A
C4         C1137   1.487       .  S
C5           O10   1.265       .  A
C5            O8   1.264       .  A
C5         C1149   1.484       .  S
Cd6          O13   2.437       .  S
Cd6          O12   2.448       .  S
Cd6          O11   2.436       .  S
Cd6           O7   2.466       .  S
Cd6          O10   2.455       .  S
Cd6           O8   2.447       .  S
C9           O13   1.263       .  A
C9         C1176   1.480       .  S
O14          C17   1.267       .  A
O14         Cd19   2.486       .  S
C15          O24   1.262       .  A
C15          O20   1.268       .  A
C15        C1125   1.491       .  S
O16          C22   1.264       .  A
O16         Cd19   2.454       .  S
C17          O25   1.265       .  A
C17        C1101   1.490       .  S
C18          O23   1.263       .  A
C18          O21   1.267       .  A
C18        C1113   1.482       .  S
Cd19         O26   2.456       .  S
Cd19         O25   2.443       .  S
Cd19         O24   2.443       .  S
Cd19         O20   2.490       .  S
Cd19         O23   2.438       .  S
Cd19         O21   2.474       .  S
C22          O26   1.265       .  A
C22        C1173   1.482       .  S
O27          C30   1.265       .  A
O27         Cd32   2.451       .  S
C28          O37   1.265       .  A
C28          O33   1.265       .  A
C28        C1092   1.478       .  S
O29          C35   1.265       .  A
O29         Cd32   2.453       .  S
C30          O38   1.266       .  A
C30        C1077   1.486       .  S
C31          O36   1.266       .  A
C31          O34   1.265       .  A
C31        C1164   1.484       .  S
Cd32         O39   2.451       .  S
Cd32         O38   2.454       .  S
Cd32         O37   2.460       .  S
Cd32         O33   2.440       .  S
Cd32         O36   2.455       .  S
Cd32         O34   2.436       .  S
C35          O39   1.264       .  A
C35        C1065   1.485       .  S
O40          C43   1.264       .  A
O40         Cd45   2.469       .  S
C41          O50   1.265       .  A
C41          O46   1.264       .  A
C41        C1053   1.483       .  S
O42          C48   1.267       .  A
O42         Cd45   2.466       .  S
C43          O51   1.265       .  A
C43        C1089   1.481       .  S
C44          O49   1.265       .  A
C44          O47   1.263       .  A
C44        C1041   1.485       .  S
Cd45         O52   2.461       .  S
Cd45         O51   2.440       .  S
Cd45         O50   2.464       .  S
Cd45         O46   2.442       .  S
Cd45         O49   2.471       .  S
Cd45         O47   2.448       .  S
C48          O52   1.266       .  A
C48        C1128   1.490       .  S
O53          C56   1.265       .  A
O53         Cd58   2.465       .  S
C54          O63   1.264       .  A
C54          O59   1.265       .  A
C54        C1005   1.488       .  S
O55          C61   1.264       .  A
O55         Cd58   2.430       .  S
C56          O64   1.265       .  A
C56        C1017   1.492       .  S
C57          O62   1.264       .  A
C57          O60   1.264       .  A
C57        C1032   1.479       .  S
Cd58         O65   2.470       .  S
Cd58         O64   2.478       .  S
Cd58         O63   2.464       .  S
Cd58         O59   2.478       .  S
Cd58         O62   2.460       .  S
Cd58         O60   2.453       .  S
C61          O65   1.266       .  A
C61        C1152   1.485       .  S
O66          C69   1.267       .  A
O66         Cd71   2.488       .  S
C67          O76   1.264       .  A
C67          O72   1.268       .  A
C67         C996   1.485       .  S
O68          C74   1.265       .  A
O68         Cd71   2.454       .  S
C69          O77   1.262       .  A
C69         C984   1.487       .  S
C70          O75   1.265       .  A
C70          O73   1.266       .  A
C70        C1116   1.486       .  S
Cd71         O78   2.450       .  S
Cd71         O77   2.436       .  S
Cd71         O76   2.436       .  S
Cd71         O72   2.462       .  S
Cd71         O75   2.438       .  S
Cd71         O73   2.458       .  S
C74          O78   1.264       .  A
C74        C1029   1.476       .  S
O79          C82   1.264       .  A
O79         Cd84   2.444       .  S
C80          O89   1.266       .  A
C80          O85   1.265       .  A
C80        C1056   1.482       .  S
O81          C87   1.268       .  A
O81         Cd84   2.465       .  S
C82          O90   1.265       .  A
C82         C972   1.478       .  S
C83          O88   1.267       .  A
C83          O86   1.262       .  A
C83         C957   1.489       .  S
Cd84         O91   2.443       .  S
Cd84         O90   2.472       .  S
Cd84         O89   2.457       .  S
Cd84         O85   2.445       .  S
Cd84         O88   2.491       .  S
Cd84         O86   2.446       .  S
C87          O91   1.264       .  A
C87         C993   1.488       .  S
O92          C95   1.265       .  A
O92         Cd97   2.480       .  S
C93         O102   1.265       .  A
C93          O98   1.264       .  A
C93        C1080   1.476       .  S
O94         C100   1.267       .  A
O94         Cd97   2.477       .  S
C95         O103   1.265       .  A
C95         C969   1.482       .  S
C96         O101   1.267       .  A
C96          O99   1.261       .  A
C96         C945   1.487       .  S
Cd97        O104   2.462       .  S
Cd97        O103   2.433       .  S
Cd97        O102   2.470       .  S
Cd97         O98   2.435       .  S
Cd97        O101   2.483       .  S
Cd97         O99   2.442       .  S
C100        O104   1.267       .  A
C100       C1020   1.491       .  S
O105        C108   1.267       .  A
O105       Cd110   2.443       .  S
C106        O115   1.263       .  A
C106        O111   1.266       .  A
C106        C933   1.478       .  S
O107        C113   1.266       .  A
O107       Cd110   2.456       .  S
C108        O116   1.266       .  A
C108        C909   1.484       .  S
C109        O114   1.267       .  A
C109        O112   1.263       .  A
C109        C924   1.489       .  S
Cd110       O117   2.447       .  S
Cd110       O116   2.449       .  S
Cd110       O115   2.443       .  S
Cd110       O111   2.466       .  S
Cd110       O114   2.476       .  S
Cd110       O112   2.452       .  S
C113        O117   1.264       .  A
C113        C900   1.486       .  S
O118        C121   1.265       .  A
O118       Cd123   2.453       .  S
C119        O128   1.264       .  A
C119        O124   1.266       .  A
C119        C936   1.478       .  S
O120        C126   1.269       .  A
O120       Cd123   2.471       .  S
C121        O129   1.266       .  A
C121        C876   1.485       .  S
C122        O127   1.267       .  A
C122        O125   1.264       .  A
C122        C885   1.491       .  S
Cd123       O130   2.447       .  S
Cd123       O129   2.474       .  S
Cd123       O128   2.454       .  S
Cd123       O124   2.470       .  S
Cd123       O127   2.485       .  S
Cd123       O125   2.444       .  S
C126        O130   1.264       .  A
C126        C864   1.490       .  S
O131        C134   1.267       .  A
O131       Cd136   2.464       .  S
C132        O141   1.264       .  A
C132        O137   1.267       .  A
C132        C888   1.491       .  S
O133        C139   1.265       .  A
O133       Cd136   2.444       .  S
C134        O142   1.265       .  A
C134       C1104   1.488       .  S
C135        O140   1.264       .  A
C135        O138   1.266       .  A
C135        C837   1.487       .  S
Cd136       O143   2.475       .  S
Cd136       O142   2.447       .  S
Cd136       O141   2.463       .  S
Cd136       O137   2.474       .  S
Cd136       O140   2.434       .  S
Cd136       O138   2.474       .  S
C139        O143   1.265       .  A
C139        C849   1.482       .  S
O144        C147   1.268       .  A
O144       Cd149   2.484       .  S
C145        O154   1.264       .  A
C145        O150   1.267       .  A
C145        C921   1.490       .  S
O146        C152   1.266       .  A
O146       Cd149   2.474       .  S
C147        O155   1.264       .  A
C147       C1140   1.485       .  S
C148        O153   1.264       .  A
C148        O151   1.266       .  A
C148        C825   1.492       .  S
Cd149       O156   2.453       .  S
Cd149       O155   2.429       .  S
Cd149       O154   2.459       .  S
Cd149       O150   2.470       .  S
Cd149       O153   2.464       .  S
Cd149       O151   2.483       .  S
C152        O156   1.262       .  A
C152        C852   1.481       .  S
O157        C160   1.266       .  A
O157       Cd162   2.484       .  S
C158        O167   1.264       .  A
C158        O163   1.268       .  A
C158        C804   1.486       .  S
O159        C165   1.266       .  A
O159       Cd162   2.459       .  S
C160        O168   1.263       .  A
C160        C789   1.491       .  S
C161        O166   1.265       .  A
C161        O164   1.265       .  A
C161        C840   1.483       .  S
Cd162       O169   2.441       .  S
Cd162       O168   2.458       .  S
Cd162       O167   2.456       .  S
Cd162       O163   2.489       .  S
Cd162       O166   2.457       .  S
Cd162       O164   2.459       .  S
C165        O169   1.266       .  A
C165        C816   1.478       .  S
O170        C173   1.266       .  A
O170       Cd175   2.477       .  S
C171        O180   1.265       .  A
C171        O176   1.267       .  A
C171        C777   1.489       .  S
O172        C178   1.266       .  A
O172       Cd175   2.459       .  S
C173        O181   1.264       .  A
C173        C768   1.491       .  S
C174        O179   1.266       .  A
C174        O177   1.266       .  A
C174        C828   1.486   1_554  S
Cd175       O182   2.442       .  S
Cd175       O181   2.456       .  S
Cd175       O180   2.454       .  S
Cd175       O176   2.470       .  S
Cd175       O179   2.461       .  S
Cd175       O177   2.463       .  S
C178        O182   1.264       .  A
C178        C813   1.478       .  S
O183        C186   1.264       .  A
O183       Cd188   2.446       .  S
C184        O193   1.265       .  A
C184        O189   1.266       .  A
C184        C753   1.479       .  S
O185        C191   1.268       .  A
O185       Cd188   2.483       .  S
C186        O194   1.266       .  A
C186        C912   1.486       .  S
C187        O192   1.267       .  A
C187        O190   1.263       .  A
C187        C780   1.491       .  S
Cd188       O195   2.456       .  S
Cd188       O194   2.465       .  S
Cd188       O193   2.442       .  S
Cd188       O189   2.464       .  S
Cd188       O192   2.487       .  S
Cd188       O190   2.455       .  S
C191        O195   1.264       .  A
C191        C960   1.492       .  S
O196        C199   1.266       .  A
O196       Cd201   2.463       .  S
C197        O206   1.265       .  A
C197        O202   1.267       .  A
C197        C756   1.477       .  S
O198        C204   1.268       .  A
O198       Cd201   2.464       .  S
C199        O207   1.264       .  A
C199        C873   1.489       .  S
C200        O205   1.268       .  A
C200        O203   1.262       .  A
C200        C801   1.488       .  S
Cd201       O208   2.452       .  S
Cd201       O207   2.462       .  S
Cd201       O206   2.447       .  S
Cd201       O202   2.455       .  S
Cd201       O205   2.491       .  S
Cd201       O203   2.444       .  S
C204        O208   1.264       .  A
C204        C948   1.486       .  S
O209        C212   1.264       .  A
O209       Cd214   2.445       .  S
C210        O219   1.262       .  A
C210        O215   1.266       .  A
C210        C744   1.487       .  S
O211        C217   1.265       .  A
O211       Cd214   2.459       .  S
C212        O220   1.267       .  A
C212        C720   1.485       .  S
C213        O218   1.266       .  A
C213        O216   1.265       .  A
C213        C729   1.490       .  S
Cd214       O221   2.470       .  S
Cd214       O220   2.460       .  S
Cd214       O219   2.438       .  S
Cd214       O215   2.480       .  S
Cd214       O218   2.471       .  S
Cd214       O216   2.448       .  S
C217        O221   1.265       .  A
C217       C1044   1.488       .  S
O222        C225   1.265       .  A
O222       Cd227   2.436       .  S
C223        O232   1.265       .  A
C223        O228   1.266       .  A
C223        C741   1.475       .  S
O224        C230   1.266       .  A
O224       Cd227   2.490       .  S
C225        O233   1.266       .  A
C225        C693   1.483       .  S
C226        O231   1.268       .  A
C226        O229   1.266       .  A
C226        C705   1.490       .  S
Cd227       O234   2.443       .  S
Cd227       O233   2.482       .  S
Cd227       O232   2.448       .  S
Cd227       O228   2.458       .  S
Cd227       O231   2.453       .  S
Cd227       O229   2.456       .  S
C230        O234   1.263       .  A
C230       C1068   1.489       .  S
O235        C238   1.266       .  A
O235       Cd240   2.493       .  S
C236        O245   1.266       .  A
C236        O241   1.267       .  A
C236        C732   1.490       .  S
O237        C243   1.265       .  A
O237       Cd240   2.446       .  S
C238        O246   1.262       .  A
C238        C657   1.488       .  S
C239        O244   1.264       .  A
C239        O242   1.266       .  A
C239        C672   1.480       .  S
Cd240       O247   2.451       .  S
Cd240       O246   2.439       .  S
Cd240       O245   2.462       .  S
Cd240       O241   2.464       .  S
Cd240       O244   2.446       .  S
Cd240       O242   2.462       .  S
C243        O247   1.265       .  A
C243        C684   1.477       .  S
O248        C251   1.266       .  A
O248       Cd253   2.479       .  S
C249        O258   1.264       .  A
C249        O254   1.264       .  A
C249        C636   1.489       .  S
O250        C256   1.265       .  A
O250       Cd253   2.458       .  S
C251        O259   1.265       .  A
C251        C708   1.489       .  S
C252        O257   1.266       .  A
C252        O255   1.263       .  A
C252        C681   1.482       .  S
Cd253       O260   2.482       .  S
Cd253       O259   2.442       .  S
Cd253       O258   2.454       .  S
Cd253       O254   2.476       .  S
Cd253       O257   2.468       .  S
Cd253       O255   2.453       .  S
C256        O260   1.266       .  A
C256        C645   1.491       .  S
O261        C264   1.264       .  A
O261       Cd266   2.457       .  S
C262        O271   1.262       .  A
C262        O267   1.263       .  A
C262        C621   1.483       .  S
O263        C269   1.269       .  A
O263       Cd266   2.469       .  S
C264        O272   1.266       .  A
C264        C696   1.489       .  S
C265        O270   1.265       .  A
C265        O268   1.263       .  A
C265        C609   1.488       .  S
Cd266       O273   2.465       .  S
Cd266       O272   2.470       .  S
Cd266       O271   2.459       .  S
Cd266       O267   2.485       .  S
Cd266       O270   2.481       .  S
Cd266       O268   2.453       .  S
C269        O273   1.267       .  A
C269        C597   1.494       .  S
O274        C277   1.265       .  A
O274       Cd279   2.457       .  S
C275        O284   1.264       .  A
C275        O280   1.268       .  A
C275        C624   1.483       .  S
O276        C282   1.266       .  A
O276       Cd279   2.469       .  S
C277        O285   1.265       .  A
C277        C717   1.481       .  S
C278        O283   1.268       .  A
C278        O281   1.263       .  A
C278        C585   1.491       .  S
Cd279       O286   2.464       .  S
Cd279       O285   2.455       .  S
Cd279       O284   2.421       .  S
Cd279       O280   2.463       .  S
Cd279       O283   2.498       .  S
Cd279       O281   2.439       .  S
C282        O286   1.264       .  A
C282        C573   1.490       .  S
O287        C290   1.266       .  A
O287       Cd292   2.486       .  S
C288        O297   1.265       .  A
C288        O293   1.268       .  A
C288        C588   1.483       .  S
O289        C295   1.266       .  A
O289       Cd292   2.470       .  S
C290        O298   1.264       .  A
C290       C1008   1.491       .  S
C291        O296   1.266       .  A
C291        O294   1.265       .  A
C291        C669   1.485       .  S
Cd292       O299   2.458       .  S
Cd292       O298   2.454       .  S
Cd292       O297   2.440       .  S
Cd292       O293   2.470       .  S
Cd292       O296   2.456       .  S
Cd292       O294   2.457       .  S
C295        O299   1.264       .  A
C295        C561   1.482       .  S
O300        C303   1.266       .  A
O300       Cd305   2.465       .  S
C301        O310   1.263       .  A
C301        O306   1.267       .  A
C301        C981   1.489       .  S
O302        C308   1.266       .  A
O302       Cd305   2.478       .  S
C303        O311   1.266       .  A
C303        C612   1.491       .  S
C304        O309   1.267       .  A
C304        O307   1.265       .  A
C304        C564   1.487       .  S
Cd305       O312   2.474       .  S
Cd305       O311   2.468       .  S
Cd305       O310   2.448       .  S
Cd305       O306   2.481       .  S
Cd305       O309   2.471       .  S
Cd305       O307   2.460       .  S
C308        O312   1.266       .  A
C308        C648   1.490       .  S
O313        C316   1.264       .  A
O313       Cd318   2.454       .  S
C314        O323   1.264       .  A
C314        O319   1.266       .  A
C314        C549   1.480       .  S
O315        C321   1.269       .  A
O315       Cd318   2.479       .  S
C316        O324   1.264       .  A
C316        C528   1.480       .  S
C317        O322   1.268       .  A
C317        O320   1.264       .  A
C317        C540   1.490       .  S
Cd318       O325   2.420       .  S
Cd318       O324   2.469       .  S
Cd318       O323   2.445       .  S
Cd318       O319   2.462       .  S
Cd318       O322   2.498       .  S
Cd318       O320   2.444       .  S
C321        O325   1.265       .  A
C321        C897   1.486       .  S
O326        C329   1.265       .  A
O326       Cd331   2.445       .  S
C327        O336   1.263       .  A
C327        O332   1.265       .  A
C327        C552   1.480       .  S
O328        C334   1.266       .  A
O328       Cd331   2.482       .  S
C329        O337   1.267       .  A
C329        C501   1.484       .  S
C330        O335   1.267       .  A
C330        O333   1.265       .  A
C330        C513   1.490       .  S
Cd331       O338   2.470       .  S
Cd331       O337   2.468       .  S
Cd331       O336   2.453       .  S
Cd331       O332   2.458       .  S
Cd331       O335   2.456       .  S
Cd331       O333   2.468       .  S
C334        O338   1.263       .  A
C334        C861   1.490       .  S
O339        C342   1.266       .  A
O339       Cd344   2.486       .  S
C340        O349   1.266       .  A
C340        O345   1.267       .  A
C340        C537   1.493       .  S
O341        C347   1.264       .  A
O341       Cd344   2.453       .  S
C342        O350   1.264       .  A
C342        C633   1.490       .  S
C343        O348   1.266       .  A
C343        O346   1.265       .  A
C343        C477   1.489       .  S
Cd344       O351   2.475       .  S
Cd344       O350   2.461       .  S
Cd344       O349   2.480       .  S
Cd344       O345   2.467       .  S
Cd344       O348   2.463       .  S
Cd344       O346   2.469       .  S
C347        O351   1.266       .  A
C347        C492   1.481       .  S
O352        C355   1.270       .  A
O352       Cd357   2.485       .  S
C353        O362   1.263       .  A
C353        O358   1.269       .  A
C353        C516   1.489       .  S
O354        C360   1.267       .  A
O354       Cd357   2.468       .  S
C355        O363   1.265       .  A
C355        C660   1.485       .  S
C356        O361   1.264       .  A
C356        O359   1.264       .  A
C356        C468   1.481       .  S
Cd357       O364   2.442       .  S
Cd357       O363   2.425       .  S
Cd357       O362   2.425       .  S
Cd357       O358   2.506       .  S
Cd357       O361   2.466       .  S
Cd357       O359   2.478       .  S
C360        O364   1.264       .  A
C360        C489   1.483       .  S
O365        C368   1.267       .  A
O365       Cd370   2.468       .  S
C366        O375   1.263       .  A
C366        O371   1.265       .  A
C366        C792   1.486       .  S
O367        C373   1.264       .  A
O367       Cd370   2.452       .  S
C368        O376   1.265       .  A
C368        C444   1.492       .  S
C369        O374   1.264       .  A
C369        O372   1.265       .  A
C369        C456   1.488       .  S
Cd370       O377   2.481       .  S
Cd370       O376   2.468       .  S
Cd370       O375   2.456       .  S
Cd370       O371   2.482       .  S
Cd370       O374   2.475       .  S
Cd370       O372   2.466       .  S
C373        O377   1.266       .  A
C373        C480   1.488       .  S
O378        C381   1.267       .  A
O378       Cd383   2.481       .  S
C379        O388   1.268       .  A
C379        O384   1.263       .  A
C379        C429   1.483       .  S
O380        C386   1.265       .  A
O380       Cd383   2.463       .  S
C381        O389   1.265       .  A
C381        C765   1.487       .  S
C382        O387   1.265       .  A
C382        O385   1.266       .  A
C382        C465   1.481       .  S
Cd383       O390   2.468       .  S
Cd383       O389   2.453       .  S
Cd383       O388   2.486       .  S
Cd383       O384   2.428       .  S
Cd383       O387   2.464       .  S
Cd383       O385   2.472       .  S
C386        O390   1.264       .  A
C386        C453   1.489       .  S
O391        C394   1.267       .  A
O391       Cd396   2.470       .  S
C392        O401   1.266       .  A
C392        O397   1.266       .  A
C392        C504   1.486       .  S
O393        C399   1.268       .  A
O393       Cd396   2.465       .  S
C394        O402   1.264       .  A
C394        C417   1.487       .  S
C395        O400   1.268       .  A
C395        O398   1.263       .  A
C395        C600   1.489       .  S
Cd396       O403   2.447       .  S
Cd396       O402   2.447       .  S
Cd396       O401   2.478       .  S
Cd396       O397   2.432       .  S
Cd396       O400   2.493       .  S
Cd396       O398   2.446       .  S
C399        O403   1.263       .  A
C399        C432   1.486       .  S
O404        C407   1.265       .  A
O404       Cd409   2.477       .  S
C405        O414   1.263       .  A
C405        O410   1.266       .  A
C405        C420   1.480       .  S
O406        C412   1.268       .  A
O406       Cd409   2.489       .  S
C407        O415   1.265       .  A
C407        C525   1.482       .  S
C408        O413   1.268       .  A
C408        O411   1.264       .  A
C408        C441   1.491       .  S
Cd409       O416   2.448       .  S
Cd409       O415   2.466       .  S
Cd409       O414   2.445       .  S
Cd409       O410   2.481       .  S
Cd409       O413   2.489       .  S
Cd409       O411   2.447       .  S
C412        O416   1.265       .  A
C412        C576   1.492       .  S
C417        C418   1.406   1_655  A
C417        C422   1.418       .  A
C418        C419   1.400       .  A
C418        H423   1.085       .  S
C419        C420   1.413       .  A
C419        C426   1.445       .  S
C420        C421   1.402       .  A
C421        C422   1.401   1_455  A
C421        H424   1.085       .  S
C422        C425   1.444       .  S
C425        N427   1.157       .  T
C426        N428   1.157       .  T
C429        C430   1.404       .  A
C429        C434   1.414       .  A
C430        C431   1.402       .  A
C430        H435   1.085       .  S
C431        C432   1.417       .  A
C431        C438   1.444       .  S
C432        C433   1.404       .  A
C433        C434   1.398       .  A
C433        H436   1.085       .  S
C434        C437   1.444       .  S
C437        N439   1.157       .  T
C438        N440   1.157       .  T
C441        C442   1.406       .  A
C441        C446   1.417       .  A
C442        C443   1.404       .  A
C442        H447   1.084       .  S
C443        C444   1.417       .  A
C443        C450   1.444       .  S
C444        C445   1.405       .  A
C445        C446   1.400       .  A
C445        H448   1.084       .  S
C446        C449   1.445       .  S
C449        N451   1.157       .  T
C450        N452   1.157       .  T
C453        C454   1.407       .  A
C453        C458   1.415       .  A
C454        C455   1.402       .  A
C454        H459   1.086       .  S
C455        C456   1.416       .  A
C455        C462   1.445       .  S
C456        C457   1.405       .  A
C457        C458   1.400       .  A
C457        H460   1.086       .  S
C458        C461   1.444       .  S
C461        N463   1.157       .  T
C462        N464   1.158       .  T
C465        C466   1.404       .  A
C465        C470   1.414       .  A
C466        C467   1.401       .  A
C466        H471   1.085       .  S
C467        C468   1.412       .  A
C467        C474   1.444       .  S
C468        C469   1.404       .  A
C469        C470   1.402       .  A
C469        H472   1.085       .  S
C470        C473   1.444       .  S
C473        N475   1.157       .  T
C474        N476   1.157       .  T
C477        C478   1.405       .  A
C477        C482   1.416       .  A
C478        C479   1.400   1_545  A
C478        H483   1.085       .  S
C479        C480   1.415       .  A
C479        C486   1.445       .  S
C480        C481   1.405       .  A
C481        C482   1.403   1_565  A
C481        H484   1.085       .  S
C482        C485   1.444       .  S
C485        N487   1.157       .  T
C486        N488   1.157       .  T
C489        C490   1.404       .  A
C489        C494   1.416       .  A
C490        C491   1.400       .  A
C490        H495   1.085       .  S
C491        C492   1.414       .  A
C491        C498   1.444       .  S
C492        C493   1.403       .  A
C493        C494   1.401       .  A
C493        H496   1.084       .  S
C494        C497   1.445       .  S
C497        N499   1.157       .  T
C498        N500   1.157       .  T
C501        C502   1.406       .  A
C501        C506   1.414       .  A
C502        C503   1.403   1_545  A
C502        H507   1.085       .  S
C503        C504   1.416       .  A
C503        C510   1.444       .  S
C504        C505   1.405       .  A
C505        C506   1.396   1_565  A
C505        H508   1.085       .  S
C506        C509   1.444       .  S
C509        N511   1.157       .  T
C510        N512   1.158       .  T
C513        C514   1.409       .  A
C513        C518   1.414       .  A
C514        C515   1.405       .  A
C514        H519   1.083       .  S
C515        C516   1.414       .  A
C515        C522   1.444       .  S
C516        C517   1.406       .  A
C517        C518   1.398       .  A
C517        H520   1.084       .  S
C518        C521   1.444       .  S
C521        N523   1.157       .  T
C522        N524   1.157       .  T
C525        C526   1.405       .  A
C525        C530   1.413       .  A
C526        C527   1.402       .  A
C526        H531   1.085       .  S
C527        C528   1.414       .  A
C527        C534   1.445       .  S
C528        C529   1.403       .  A
C529        C530   1.399       .  A
C529        H532   1.085       .  S
C530        C533   1.444       .  S
C533        N535   1.157       .  T
C534        N536   1.158       .  T
C537        C538   1.409       .  A
C537        C542   1.416       .  A
C538        C539   1.405       .  A
C538        H543   1.084       .  S
C539        C540   1.414       .  A
C539        C546   1.444       .  S
C540        C541   1.405       .  A
C541        C542   1.400       .  A
C541        H544   1.085       .  S
C542        C545   1.444       .  S
C545        N547   1.157       .  T
C546        N548   1.157       .  T
C549        C550   1.404       .  A
C549        C554   1.413       .  A
C550        C551   1.400   1_455  A
C550        H555   1.086       .  S
C551        C552   1.415       .  A
C551        C558   1.445       .  S
C552        C553   1.404   1_655  A
C553        C554   1.398       .  A
C553        H556   1.085       .  S
C554        C557   1.444       .  S
C557        N559   1.157       .  T
C558        N560   1.158       .  T
C561        C562   1.404   1_655  A
C561        C566   1.412       .  A
C562        C563   1.401       .  A
C562        H567   1.085       .  S
C563        C564   1.415       .  A
C563        C570   1.444       .  S
C564        C565   1.407   1_455  A
C565        C566   1.401       .  A
C565        H568   1.085       .  S
C566        C569   1.445       .  S
C569        N571   1.157       .  T
C570        N572   1.157       .  T
C573        C574   1.408       .  A
C573        C578   1.414       .  A
C574        C575   1.404       .  A
C574        H579   1.084       .  S
C575        C576   1.416       .  A
C575        C582   1.444       .  S
C576        C577   1.407       .  A
C577        C578   1.400       .  A
C577        H580   1.084       .  S
C578        C581   1.444       .  S
C581        N583   1.157       .  T
C582        N584   1.157       .  T
C585        C586   1.409   1_455  A
C585        C590   1.415       .  A
C586        C587   1.400       .  A
C586        H591   1.084       .  S
C587        C588   1.410       .  A
C587        C594   1.444       .  S
C588        C589   1.405       .  A
C589        C590   1.401   1_655  A
C589        H592   1.084       .  S
C590        C593   1.444       .  S
C593        N595   1.157       .  T
C594        N596   1.157       .  T
C597        C598   1.406       .  A
C597        C602   1.418       .  A
C598        C599   1.401       .  A
C598        H603   1.085       .  S
C599        C600   1.416       .  A
C599        C606   1.445       .  S
C600        C601   1.404       .  A
C601        C602   1.403       .  A
C601        H604   1.085       .  S
C602        C605   1.444       .  S
C605        N607   1.157       .  T
C606        N608   1.157       .  T
C609        C610   1.406       .  A
C609        C614   1.414   1_565  A
C610        C611   1.400   1_655  A
C610        H615   1.084       .  S
C611        C612   1.416   1_565  A
C611        C618   1.444       .  S
C612        C613   1.408       .  A
C613        C614   1.402   1_455  A
C613        H616   1.084       .  S
C614        C617   1.444       .  S
C617        N619   1.157       .  T
C618        N620   1.157       .  T
C621        C622   1.404       .  A
C621        C626   1.414   1_655  A
C622        C623   1.397   1_655  A
C622        H627   1.085       .  S
C623        C624   1.415       .  A
C623        C630   1.445       .  S
C624        C625   1.405       .  A
C625        C626   1.401       .  A
C625        H628   1.084       .  S
C626        C629   1.444       .  S
C629        N631   1.157       .  T
C630        N632   1.158       .  T
C633        C634   1.408       .  A
C633        C638   1.415       .  A
C634        C635   1.402       .  A
C634        H639   1.084       .  S
C635        C636   1.415       .  A
C635        C642   1.445       .  S
C636        C637   1.406       .  A
C637        C638   1.400       .  A
C637        H640   1.084       .  S
C638        C641   1.444       .  S
C641        N643   1.157       .  T
C642        N644   1.158       .  T
C645        C646   1.407       .  A
C645        C650   1.416       .  A
C646        C647   1.401       .  A
C646        H651   1.085       .  S
C647        C648   1.415       .  A
C647        C654   1.444       .  S
C648        C649   1.406       .  A
C649        C650   1.403       .  A
C649        H652   1.085       .  S
C650        C653   1.444       .  S
C653        N655   1.157       .  T
C654        N656   1.157       .  T
C657        C658   1.408       .  A
C657        C662   1.414       .  A
C658        C659   1.401       .  A
C658        H663   1.085       .  S
C659        C660   1.412       .  A
C659        C666   1.444       .  S
C660        C661   1.407       .  A
C661        C662   1.400       .  A
C661        H664   1.085       .  S
C662        C665   1.444       .  S
C665        N667   1.157       .  T
C666        N668   1.157       .  T
C669        C670   1.405       .  A
C669        C674   1.416       .  A
C670        C671   1.399       .  A
C670        H675   1.086       .  S
C671        C672   1.414       .  A
C671        C678   1.445       .  S
C672        C673   1.403       .  A
C673        C674   1.400       .  A
C673        H676   1.085       .  S
C674        C677   1.444       .  S
C677        N679   1.157       .  T
C678        N680   1.158       .  T
C681        C682   1.405       .  A
C681        C686   1.415       .  A
C682        C683   1.400       .  A
C682        H687   1.086       .  S
C683        C684   1.412       .  A
C683        C690   1.445       .  S
C684        C685   1.402       .  A
C685        C686   1.398       .  A
C685        H688   1.086       .  S
C686        C689   1.444       .  S
C689        N691   1.157       .  T
C690        N692   1.157       .  T
C693        C694   1.403       .  A
C693        C698   1.413       .  A
C694        C695   1.397       .  A
C694        H699   1.086       .  S
C695        C696   1.416       .  A
C695        C702   1.444       .  S
C696        C697   1.408       .  A
C697        C698   1.403       .  A
C697        H700   1.085       .  S
C698        C701   1.444       .  S
C701        N703   1.157       .  T
C702        N704   1.157       .  T
C705        C706   1.408       .  A
C705        C710   1.414   1_565  A
C706        C707   1.403       .  A
C706        H711   1.084       .  S
C707        C708   1.416   1_565  A
C707        C714   1.445       .  S
C708        C709   1.405       .  A
C709        C710   1.398       .  A
C709        H712   1.084       .  S
C710        C713   1.444       .  S
C713        N715   1.157       .  T
C714        N716   1.158       .  T
C717        C718   1.404       .  A
C717        C722   1.413       .  A
C718        C719   1.400       .  A
C718        H723   1.085       .  S
C719        C720   1.416       .  A
C719        C726   1.445       .  S
C720        C721   1.405       .  A
C721        C722   1.399       .  A
C721        H724   1.085       .  S
C722        C725   1.444       .  S
C725        N727   1.157       .  T
C726        N728   1.158       .  T
C729        C730   1.406       .  A
C729        C734   1.416       .  A
C730        C731   1.400       .  A
C730        H735   1.084       .  S
C731        C732   1.414       .  A
C731        C738   1.444       .  S
C732        C733   1.407       .  A
C733        C734   1.403       .  A
C733        H736   1.084       .  S
C734        C737   1.445       .  S
C737        N739   1.158       .  T
C738        N740   1.157       .  T
C741        C742   1.400       .  A
C741        C746   1.411       .  A
C742        C743   1.399       .  A
C742        H747   1.086       .  S
C743        C744   1.418       .  A
C743        C750   1.444       .  S
C744        C745   1.407       .  A
C745        C746   1.400       .  A
C745        H748   1.085       .  S
C746        C749   1.445       .  S
C749        N751   1.157       .  T
C750        N752   1.157       .  T
C753        C754   1.404       .  A
C753        C758   1.413       .  A
C754        C755   1.398       .  A
C754        H759   1.085       .  S
C755        C756   1.412       .  A
C755        C762   1.445       .  S
C756        C757   1.404       .  A
C757        C758   1.400       .  A
C757        H760   1.085       .  S
C758        C761   1.444       .  S
C761        N763   1.157   1_556  T
C762        N764   1.157       .  T
C765        C766   1.406       .  A
C765        C770   1.414       .  A
C766        C767   1.402       .  A
C766        H771   1.085       .  S
C767        C768   1.415       .  A
C767        C774   1.444       .  S
C768        C769   1.408       .  A
C769        C770   1.401       .  A
C769        H772   1.084       .  S
C770        C773   1.444       .  S
C773        N775   1.157       .  T
C774        N776   1.157       .  T
C777        C778   1.407   1_554  A
C777        C782   1.414       .  A
C778        C779   1.402       .  A
C778        H783   1.084       .  S
C779        C780   1.415       .  A
C779        C786   1.444       .  S
C780        C781   1.408   1_556  A
C781        C782   1.401       .  A
C781        H784   1.084       .  S
C782        C785   1.444       .  S
C785        N787   1.157       .  T
C786        N788   1.157       .  T
C789        C790   1.408       .  A
C789        C794   1.415       .  A
C790        C791   1.402       .  A
C790        H795   1.084       .  S
C791        C792   1.414       .  A
C791        C798   1.445       .  S
C792        C793   1.405       .  A
C793        C794   1.401       .  A
C793        H796   1.084       .  S
C794        C797   1.444       .  S
C797        N799   1.157       .  T
C798        N800   1.157       .  T
C801        C802   1.405   1_545  A
C801        C806   1.417       .  A
C802        C803   1.402       .  A
C802        H807   1.084       .  S
C803        C804   1.415   1_556  A
C803        C810   1.444       .  S
C804        C805   1.403   1_565  A
C805        C806   1.402   1_554  A
C805        H808   1.084       .  S
C806        C809   1.445   1_556  S
C809        N811   1.158       .  T
C810        N812   1.157       .  T
C813        C814   1.405       .  A
C813        C818   1.412       .  A
C814        C815   1.399       .  A
C814        H819   1.086       .  S
C815        C816   1.413       .  A
C815        C822   1.444       .  S
C816        C817   1.404       .  A
C817        C818   1.398       .  A
C817        H820   1.086       .  S
C818        C821   1.444       .  S
C821        N823   1.157       .  T
C822        N824   1.157       .  T
C825        C826   1.407       .  A
C825        C830   1.417       .  A
C826        C827   1.402       .  A
C826        H831   1.085       .  S
C827        C828   1.413       .  A
C827        C834   1.444   1_556  S
C828        C829   1.404       .  A
C829        C830   1.401       .  A
C829        H832   1.085       .  S
C830        C833   1.444       .  S
C833        N835   1.157       .  T
C834        N836   1.157       .  T
C837        C838   1.407       .  A
C837        C842   1.417       .  A
C838        C839   1.401       .  A
C838        H843   1.084       .  S
C839        C840   1.413   1_556  A
C839        C846   1.445       .  S
C840        C841   1.403       .  A
C841        C842   1.399   1_554  A
C841        H844   1.085       .  S
C842        C845   1.445       .  S
C845        N847   1.157       .  T
C846        N848   1.157       .  T
C849        C850   1.405       .  A
C849        C854   1.414       .  A
C850        C851   1.402   1_455  A
C850        H855   1.084       .  S
C851        C852   1.415       .  A
C851        C858   1.445       .  S
C852        C853   1.403       .  A
C853        C854   1.399   1_655  A
C853        H856   1.084       .  S
C854        C857   1.444       .  S
C857        N859   1.157   1_556  T
C858        N860   1.158       .  T
C861        C862   1.405       .  A
C861        C866   1.416       .  A
C862        C863   1.401       .  A
C862        H867   1.085       .  S
C863        C864   1.417       .  A
C863        C870   1.445       .  S
C864        C865   1.405       .  A
C865        C866   1.401       .  A
C865        H868   1.085       .  S
C866        C869   1.444       .  S
C869        N871   1.157       .  T
C870        N872   1.158       .  T
C873        C874   1.405       .  A
C873        C878   1.417       .  A
C874        C875   1.399   1_556  A
C874        H879   1.084       .  S
C875        C876   1.414       .  A
C875        C882   1.444       .  S
C876        C877   1.405   1_554  A
C877        C878   1.402       .  A
C877        H880   1.085   1_556  S
C878        C881   1.445       .  S
C881        N883   1.158       .  T
C882        N884   1.157       .  T
C885        C886   1.407   1_554  A
C885        C890   1.415   1_545  A
C886        C887   1.400   1_655  A
C886        H891   1.084       .  S
C887        C888   1.414   1_545  A
C887        C894   1.444       .  S
C888        C889   1.409   1_556  A
C889        C890   1.403   1_455  A
C889        H892   1.084       .  S
C890        C893   1.444       .  S
C893        N895   1.158       .  T
C894        N896   1.157       .  T
C897        C898   1.407       .  A
C897        C902   1.413       .  A
C898        C899   1.398       .  A
C898        H903   1.085       .  S
C899        C900   1.414       .  A
C899        C906   1.445       .  S
C900        C901   1.408       .  A
C901        C902   1.401       .  A
C901        H904   1.084       .  S
C902        C905   1.444       .  S
C905        N907   1.157       .  T
C906        N908   1.157       .  T
C909        C910   1.404       .  A
C909        C914   1.415       .  A
C910        C911   1.398   1_554  A
C910        H915   1.085       .  S
C911        C912   1.416       .  A
C911        C918   1.445       .  S
C912        C913   1.406       .  A
C913        C914   1.400   1_556  A
C913        H916   1.085       .  S
C914        C917   1.444       .  S
C917        N919   1.157       .  T
C918        N920   1.157       .  T
C921        C922   1.405   1_655  A
C921        C926   1.417   1_656  A
C922        C923   1.400       .  A
C922        H927   1.084   1_455  S
C923        C924   1.417   1_556  A
C923        C930   1.444       .  S
C924        C925   1.405       .  A
C925        C926   1.401       .  A
C925        H928   1.084       .  S
C926        C929   1.444   1_455  S
C929        N931   1.157       .  T
C930        N932   1.157       .  T
C933        C934   1.403       .  A
C933        C938   1.414       .  A
C934        C935   1.400       .  A
C934        H939   1.084       .  S
C935        C936   1.411   1_455  A
C935        C942   1.444   1_454  S
C936        C937   1.404       .  A
C937        C938   1.400   1_655  A
C937        H940   1.084       .  S
C938        C941   1.446       .  S
C941        N943   1.158       .  T
C942        N944   1.157       .  T
C945        C946   1.405       .  A
C945        C950   1.417       .  A
C946        C947   1.401       .  A
C946        H951   1.085       .  S
C947        C948   1.416       .  A
C947        C954   1.444       .  S
C948        C949   1.404       .  A
C949        C950   1.399       .  A
C949        H952   1.085       .  S
C950        C953   1.444       .  S
C953        N955   1.157       .  T
C954        N956   1.157       .  T
C957        C958   1.404       .  A
C957        C962   1.417       .  A
C958        C959   1.402       .  A
C958        H963   1.085       .  S
C959        C960   1.418       .  A
C959        C966   1.444       .  S
C960        C961   1.405       .  A
C961        C962   1.402       .  A
C961        H964   1.085       .  S
C962        C965   1.445       .  S
C965        N967   1.157       .  T
C966        N968   1.157       .  T
C969        C970   1.403       .  A
C969        C974   1.416       .  A
C970        C971   1.395       .  A
C970        H975   1.086       .  S
C971        C972   1.411       .  A
C971        C978   1.444       .  S
C972        C973   1.405       .  A
C973        C974   1.403       .  A
C973        H976   1.086       .  S
C974        C977   1.444       .  S
C977        N979   1.158       .  T
C978        N980   1.157       .  T
C981        C982   1.405       .  A
C981        C986   1.418       .  A
C982        C983   1.400       .  A
C982        H987   1.085       .  S
C983        C984   1.416       .  A
C983        C990   1.445       .  S
C984        C985   1.404       .  A
C985        C986   1.401       .  A
C985        H988   1.085       .  S
C986        C989   1.444       .  S
C989        N991   1.157       .  T
C990        N992   1.157       .  T
C993        C994   1.405       .  A
C993        C998   1.418       .  A
C994        C995   1.400       .  A
C994        H999   1.085       .  S
C995        C996   1.416       .  A
C995       C1002   1.445       .  S
C996        C997   1.403       .  A
C997        C998   1.399       .  A
C997       H1000   1.085       .  S
C998       C1001   1.444       .  S
C1001      N1003   1.157       .  T
C1002      N1004   1.157       .  T
C1005      C1006   1.406       .  A
C1005      C1010   1.414       .  A
C1006      C1007   1.402       .  A
C1006      H1011   1.085       .  S
C1007      C1008   1.415       .  A
C1007      C1014   1.444       .  S
C1008      C1009   1.407       .  A
C1009      C1010   1.400       .  A
C1009      H1012   1.084       .  S
C1010      C1013   1.444       .  S
C1013      N1015   1.157       .  T
C1014      N1016   1.157       .  T
C1017      C1018   1.407       .  A
C1017      C1022   1.416       .  A
C1018      C1019   1.404       .  A
C1018      H1023   1.084       .  S
C1019      C1020   1.416       .  A
C1019      C1026   1.444       .  S
C1020      C1021   1.406       .  A
C1021      C1022   1.401       .  A
C1021      H1024   1.084       .  S
C1022      C1025   1.444       .  S
C1025      N1027   1.157       .  T
C1026      N1028   1.157       .  T
C1029      C1030   1.402       .  A
C1029      C1034   1.413       .  A
C1030      C1031   1.398   1_455  A
C1030      H1035   1.085       .  S
C1031      C1032   1.413       .  A
C1031      C1038   1.444       .  S
C1032      C1033   1.405   1_655  A
C1033      C1034   1.400       .  A
C1033      H1036   1.085       .  S
C1034      C1037   1.445       .  S
C1037      N1039   1.158       .  T
C1038      N1040   1.157       .  T
C1041      C1042   1.405       .  A
C1041      C1046   1.414       .  A
C1042      C1043   1.399       .  A
C1042      H1047   1.085       .  S
C1043      C1044   1.416       .  A
C1043      C1050   1.444       .  S
C1044      C1045   1.407       .  A
C1045      C1046   1.402       .  A
C1045      H1048   1.084       .  S
C1046      C1049   1.445       .  S
C1049      N1051   1.157       .  T
C1050      N1052   1.157       .  T
C1053      C1054   1.405       .  A
C1053      C1058   1.414       .  A
C1054      C1055   1.398       .  A
C1054      H1059   1.086       .  S
C1055      C1056   1.414       .  A
C1055      C1062   1.445       .  S
C1056      C1057   1.405       .  A
C1057      C1058   1.400       .  A
C1057      H1060   1.085       .  S
C1058      C1061   1.444       .  S
C1061      N1063   1.157       .  T
C1062      N1064   1.157       .  T
C1065      C1066   1.406       .  A
C1065      C1070   1.414       .  A
C1066      C1067   1.401       .  A
C1066      H1071   1.085       .  S
C1067      C1068   1.415       .  A
C1067      C1074   1.444       .  S
C1068      C1069   1.407       .  A
C1069      C1070   1.399       .  A
C1069      H1072   1.085       .  S
C1070      C1073   1.445       .  S
C1073      N1075   1.158       .  T
C1074      N1076   1.157       .  T
C1077      C1078   1.408       .  A
C1077      C1082   1.417       .  A
C1078      C1079   1.400   1_565  A
C1078      H1083   1.084       .  S
C1079      C1080   1.410       .  A
C1079      C1086   1.444       .  S
C1080      C1081   1.402       .  A
C1081      C1082   1.398   1_545  A
C1081      H1084   1.086       .  S
C1082      C1085   1.444       .  S
C1085      N1087   1.157       .  T
C1086      N1088   1.157       .  T
C1089      C1090   1.403       .  A
C1089      C1094   1.415       .  A
C1090      C1091   1.396       .  A
C1090      H1095   1.085       .  S
C1091      C1092   1.412       .  A
C1091      C1098   1.444       .  S
C1092      C1093   1.405       .  A
C1093      C1094   1.402       .  A
C1093      H1096   1.086       .  S
C1094      C1097   1.445       .  S
C1097      N1099   1.158       .  T
C1098      N1100   1.157       .  T
C1101      C1102   1.407       .  A
C1101      C1106   1.415       .  A
C1102      C1103   1.400       .  A
C1102      H1107   1.085       .  S
C1103      C1104   1.413       .  A
C1103      C1110   1.444       .  S
C1104      C1105   1.407       .  A
C1105      C1106   1.402       .  A
C1105      H1108   1.085       .  S
C1106      C1109   1.444       .  S
C1109      N1111   1.157       .  T
C1110      N1112   1.157       .  T
C1113      C1114   1.404       .  A
C1113      C1118   1.414       .  A
C1114      C1115   1.401   1_565  A
C1114      H1119   1.085       .  S
C1115      C1116   1.416       .  A
C1115      C1122   1.444       .  S
C1116      C1117   1.406       .  A
C1117      C1118   1.397   1_545  A
C1117      H1120   1.085       .  S
C1118      C1121   1.445       .  S
C1121      N1123   1.157       .  T
C1122      N1124   1.157       .  T
C1125      C1126   1.405       .  A
C1125      C1130   1.418       .  A
C1126      C1127   1.402       .  A
C1126      H1131   1.084       .  S
C1127      C1128   1.416       .  A
C1127      C1134   1.444       .  S
C1128      C1129   1.405       .  A
C1129      C1130   1.401       .  A
C1129      H1132   1.084       .  S
C1130      C1133   1.445       .  S
C1133      N1135   1.158       .  T
C1134      N1136   1.157       .  T
C1137      C1138   1.404       .  A
C1137      C1142   1.418       .  A
C1138      C1139   1.397       .  A
C1138      H1143   1.085       .  S
C1139      C1140   1.414       .  A
C1139      C1146   1.444       .  S
C1140      C1141   1.405       .  A
C1141      C1142   1.403       .  A
C1141      H1144   1.085       .  S
C1142      C1145   1.445       .  S
C1145      N1147   1.158       .  T
C1146      N1148   1.157       .  T
C1149      C1150   1.407       .  A
C1149      C1154   1.414       .  A
C1150      C1151   1.400       .  A
C1150      H1155   1.085       .  S
C1151      C1152   1.414       .  A
C1151      C1158   1.444       .  S
C1152      C1153   1.406       .  A
C1153      C1154   1.398       .  A
C1153      H1156   1.085       .  S
C1154      C1157   1.445       .  S
C1157      N1159   1.157       .  T
C1158      N1160   1.157       .  T
C1161      C1162   1.406       .  A
C1161      C1166   1.415       .  A
C1162      C1163   1.398       .  A
C1162      H1167   1.084       .  S
C1163      C1164   1.414       .  A
C1163      C1170   1.445       .  S
C1164      C1165   1.406       .  A
C1165      C1166   1.399       .  A
C1165      H1168   1.084       .  S
C1166      C1169   1.444       .  S
C1169      N1171   1.157       .  T
C1170      N1172   1.157       .  T
C1173      C1174   1.404       .  A
C1173      C1178   1.415       .  A
C1174      C1175   1.399       .  A
C1174      H1179   1.084       .  S
C1175      C1176   1.413   1_455  A
C1175      C1182   1.445   1_455  S
C1176      C1177   1.403   1_655  A
C1177      C1178   1.400       .  A
C1177      H1180   1.084   1_455  S
C1178      C1181   1.444       .  S
C1181      N1183   1.157       .  T
C1182      N1184   1.157       .  T
